C46485-P122
     RDKit          3D

 45 48  0  0  0  0  0  0  0  0999 V2000
   -3.8406  -10.7238   28.9563 O   0  0  0  0  0  0  0  0  0  0  0  0
   -4.9474  -10.3289   28.0977 S   0  0  0  0  0  0  0  0  0  0  0  0
   -5.7719   -9.1913   28.4652 O   0  0  0  0  0  0  0  0  0  0  0  0
   -6.0434  -11.8116   27.8743 C   0  0  0  0  0  0  0  0  0  0  0  0
   -6.9504  -12.2499   29.0271 C   0  0  0  0  0  0  0  0  0  0  0  0
   -6.6911  -12.4706   30.4063 C   0  0  0  0  0  0  0  0  0  0  0  0
   -7.8255  -13.0713   30.9359 C   0  0  0  0  0  0  0  0  0  0  0  0
   -8.6738  -13.2698   29.8838 N   0  0  0  0  0  0  0  0  0  0  0  0
   -9.4655  -14.4585   29.5834 C   0  0  0  0  0  0  0  0  0  0  0  0
   -8.1805  -15.6720   28.2974 C   0  0  0  0  0  0  0  0  0  0  0  0
   -8.5947  -17.6293   28.7872 C   0  0  0  0  0  0  0  0  0  0  0  0
  -10.7308  -17.6240   29.6205 C   0  0  0  0  0  0  0  0  0  0  0  0
  -11.0938  -15.5567   30.4676 C   0  0  0  0  0  0  0  0  0  0  0  0
   -8.2057  -12.6496   28.7507 N   0  0  0  0  0  0  0  0  0  0  0  0
   -4.2567   -9.9999   26.4451 C   0  0  0  0  0  0  0  0  0  0  0  0
   -3.2899   -8.8236   26.1477 C   0  0  0  0  0  0  0  0  0  0  0  0
   -3.2266   -8.3844   24.8574 N   0  0  0  0  0  0  0  0  0  0  0  0
   -2.2809   -7.4135   24.8305 N   0  0  0  0  0  0  0  0  0  0  0  0
   -1.6297   -7.3271   25.9978 C   0  0  0  0  0  0  0  0  0  0  0  0
   -2.2683   -8.1626   26.8764 C   0  0  0  0  0  0  0  0  0  0  0  0
   -1.6171   -8.1242   28.1986 C   0  0  0  0  0  0  0  0  0  0  0  0
   -0.6164   -6.9099   28.0380 C   0  0  0  0  0  0  0  0  0  0  0  0
   -0.4649   -6.5906   26.5026 C   0  0  0  0  0  0  0  0  0  0  0  0
   -6.6623  -11.5711   27.0018 H   0  0  0  0  0  0  0  0  0  0  0  0
   -5.3751  -12.6388   27.6115 H   0  0  0  0  0  0  0  0  0  0  0  0
   -5.7734  -12.2639   30.9412 H   0  0  0  0  0  0  0  0  0  0  0  0
   -8.0305  -13.4739   31.9177 H   0  0  0  0  0  0  0  0  0  0  0  0
  -10.1577  -13.9391   28.8513 H   0  0  0  0  0  0  0  0  0  0  0  0
   -7.0983  -15.4305   28.2025 H   0  0  0  0  0  0  0  0  0  0  0  0
   -8.5319  -15.5536   27.2368 H   0  0  0  0  0  0  0  0  0  0  0  0
   -7.8538  -18.2723   29.1672 H   0  0  0  0  0  0  0  0  0  0  0  0
   -8.7237  -18.0774   27.7786 H   0  0  0  0  0  0  0  0  0  0  0  0
  -11.1370  -17.9106   28.5715 H   0  0  0  0  0  0  0  0  0  0  0  0
  -11.8708  -17.5056   29.2838 H   0  0  0  0  0  0  0  0  0  0  0  0
  -12.0220  -15.1043   30.0165 H   0  0  0  0  0  0  0  0  0  0  0  0
  -11.2408  -15.4543   31.5650 H   0  0  0  0  0  0  0  0  0  0  0  0
   -5.1333   -9.8848   25.7954 H   0  0  0  0  0  0  0  0  0  0  0  0
   -3.7427  -10.9250   26.1573 H   0  0  0  0  0  0  0  0  0  0  0  0
   -2.1392   -6.9032   23.9724 H   0  0  0  0  0  0  0  0  0  0  0  0
   -1.0621   -9.0485   28.3878 H   0  0  0  0  0  0  0  0  0  0  0  0
   -2.3214   -7.9451   29.0153 H   0  0  0  0  0  0  0  0  0  0  0  0
   -1.0441   -6.0328   28.5415 H   0  0  0  0  0  0  0  0  0  0  0  0
    0.3504   -7.1157   28.5089 H   0  0  0  0  0  0  0  0  0  0  0  0
    0.4712   -7.0010   26.1134 H   0  0  0  0  0  0  0  0  0  0  0  0
   -0.5118   -5.5154   26.3140 H   0  0  0  0  0  0  0  0  0  0  0  0
  1  2  2  0
  2  3  2  0
  2  4  1  0
  4  5  1  0
  5  6  1  0
  6  7  2  0
  7  8  1  0
  8  9  1  0
  9 10  1  0
 10 11  1  0
 11 12  1  0
 12 13  1  0
  8 14  1  0
  2 15  1  0
 15 16  1  0
 16 17  2  0
 17 18  1  0
 18 19  1  0
 19 20  2  0
 20 21  1  0
 21 22  1  0
 22 23  1  0
 14  5  2  0
 20 16  1  0
 13  9  1  0
 23 19  1  0
  4 24  1  0
  4 25  1  0
  6 26  1  0
  7 27  1  0
  9 28  1  0
 10 29  1  0
 10 30  1  0
 11 31  1  0
 11 32  1  0
 12 33  1  0
 12 34  1  0
 13 35  1  0
 13 36  1  0
 15 37  1  0
 15 38  1  0
 18 39  1  0
 21 40  1  0
 21 41  1  0
 22 42  1  0
 22 43  1  0
 23 44  1  0
 23 45  1  0
M  END
>  <Energy>  (1) 
745.74875588343969

>  <compound_id>  (1) 
46485

>  <target_id>  (1) 
1

>  <reference_id>  (1) 
122

>  <inspiration_ids>  (1) 
[122, 96]

>  <energy_score>  (1) 
632.6080417332989

>  <distance_score>  (1) 
14.59473412316914

>  <path>  (1) 
/opt/xchem-fragalysis-2/maxwin/BulkDock/SCRATCH/511025/C46485-P122/C46485-P122.minimised.mol

>  <scratch_subdir>  (1) 
/opt/xchem-fragalysis-2/maxwin/BulkDock/SCRATCH/511025/C46485-P122

>  <fragmenstein_runtime>  (1) 
45.650211572647095

>  <fragmenstein_outcome>  (1) 
too moved

>  <fragmenstein_mode>  (1) 
expansion

>  <fragmenstein_error>  (1) 


$$$$
C46485-P96
     RDKit          3D

 45 48  0  0  0  0  0  0  0  0999 V2000
    2.2331  -11.6596   16.0955 O   0  0  0  0  0  0  0  0  0  0  0  0
    2.9452  -12.5715   16.9788 S   0  0  0  0  0  0  0  0  0  0  0  0
    3.5700  -13.7155   16.3159 O   0  0  0  0  0  0  0  0  0  0  0  0
    1.4773  -13.8539   18.2814 C   0  0  0  0  0  0  0  0  0  0  0  0
   -0.0697  -15.1470   18.7476 C   0  0  0  0  0  0  0  0  0  0  0  0
   -1.8275  -15.2729   18.6624 C   0  0  0  0  0  0  0  0  0  0  0  0
   -2.2217  -16.5689   18.9444 C   0  0  0  0  0  0  0  0  0  0  0  0
   -1.0855  -17.1061   19.4147 N   0  0  0  0  0  0  0  0  0  0  0  0
   -0.8549  -18.4966   19.7828 C   0  0  0  0  0  0  0  0  0  0  0  0
   -0.4424  -19.3372   18.5608 C   0  0  0  0  0  0  0  0  0  0  0  0
   -1.2118  -20.6441   18.6890 C   0  0  0  0  0  0  0  0  0  0  0  0
   -2.5119  -20.2257   19.3516 C   0  0  0  0  0  0  0  0  0  0  0  0
   -2.0578  -19.2278   20.4081 C   0  0  0  0  0  0  0  0  0  0  0  0
   -0.0869  -16.2187   19.6030 N   0  0  0  0  0  0  0  0  0  0  0  0
    4.4169  -10.9395   17.7533 C   0  0  0  0  0  0  0  0  0  0  0  0
    5.8443   -9.6979   17.2188 C   0  0  0  0  0  0  0  0  0  0  0  0
    7.1785  -10.0241   17.1235 N   0  0  0  0  0  0  0  0  0  0  0  0
    7.5333   -9.3598   15.6362 N   0  0  0  0  0  0  0  0  0  0  0  0
    7.2176   -8.0022   15.7060 C   0  0  0  0  0  0  0  0  0  0  0  0
    6.6074   -8.3630   16.7922 C   0  0  0  0  0  0  0  0  0  0  0  0
    8.3031   -7.1781   17.0451 C   0  0  0  0  0  0  0  0  0  0  0  0
    8.8842   -6.0674   17.7248 C   0  0  0  0  0  0  0  0  0  0  0  0
    7.7118   -6.2900   16.6646 C   0  0  0  0  0  0  0  0  0  0  0  0
    1.5546  -13.1684   19.0521 H   0  0  0  0  0  0  0  0  0  0  0  0
    1.2638  -14.0030   17.1784 H   0  0  0  0  0  0  0  0  0  0  0  0
   -2.4878  -14.5624   18.1766 H   0  0  0  0  0  0  0  0  0  0  0  0
   -3.1633  -17.0842   18.8389 H   0  0  0  0  0  0  0  0  0  0  0  0
   -0.0433  -18.4975   20.5185 H   0  0  0  0  0  0  0  0  0  0  0  0
   -0.7123  -18.8419   17.6204 H   0  0  0  0  0  0  0  0  0  0  0  0
    0.6385  -19.5111   18.5357 H   0  0  0  0  0  0  0  0  0  0  0  0
   -1.3727  -21.1272   17.7211 H   0  0  0  0  0  0  0  0  0  0  0  0
   -0.6647  -21.3423   19.3335 H   0  0  0  0  0  0  0  0  0  0  0  0
   -3.0489  -21.0735   19.7865 H   0  0  0  0  0  0  0  0  0  0  0  0
   -3.1706  -19.7376   18.6240 H   0  0  0  0  0  0  0  0  0  0  0  0
   -1.7173  -19.7793   21.2940 H   0  0  0  0  0  0  0  0  0  0  0  0
   -2.8740  -18.5764   20.7311 H   0  0  0  0  0  0  0  0  0  0  0  0
    4.3891  -10.7770   16.6896 H   0  0  0  0  0  0  0  0  0  0  0  0
    5.0755  -11.6511   18.1930 H   0  0  0  0  0  0  0  0  0  0  0  0
    8.1774   -9.8479   15.0175 H   0  0  0  0  0  0  0  0  0  0  0  0
    9.3074   -7.7060   16.6862 H   0  0  0  0  0  0  0  0  0  0  0  0
    8.1635   -7.1003   18.1147 H   0  0  0  0  0  0  0  0  0  0  0  0
    9.0264   -6.1058   18.8587 H   0  0  0  0  0  0  0  0  0  0  0  0
    9.8795   -5.6953   17.5281 H   0  0  0  0  0  0  0  0  0  0  0  0
    7.7624   -5.2123   16.2287 H   0  0  0  0  0  0  0  0  0  0  0  0
    6.3063   -6.0557   16.7361 H   0  0  0  0  0  0  0  0  0  0  0  0
  1  2  2  0
  2  3  2  0
  2  4  1  0
  4  5  1  0
  5  6  1  0
  6  7  2  0
  7  8  1  0
  8  9  1  0
  9 10  1  0
 10 11  1  0
 11 12  1  0
 12 13  1  0
  8 14  1  0
  2 15  1  0
 15 16  1  0
 16 17  2  0
 17 18  1  0
 18 19  1  0
 19 20  2  0
 20 21  1  0
 21 22  1  0
 22 23  1  0
 14  5  2  0
 20 16  1  0
 13  9  1  0
 23 19  1  0
  4 24  1  0
  4 25  1  0
  6 26  1  0
  7 27  1  0
  9 28  1  0
 10 29  1  0
 10 30  1  0
 11 31  1  0
 11 32  1  0
 12 33  1  0
 12 34  1  0
 13 35  1  0
 13 36  1  0
 15 37  1  0
 15 38  1  0
 18 39  1  0
 21 40  1  0
 21 41  1  0
 22 42  1  0
 22 43  1  0
 23 44  1  0
 23 45  1  0
M  END
>  <Energy>  (2) 
1356.9961068495197

>  <compound_id>  (2) 
46485

>  <target_id>  (2) 
1

>  <reference_id>  (2) 
96

>  <inspiration_ids>  (2) 
[122, 96]

>  <energy_score>  (2) 
1243.8553926993725

>  <distance_score>  (2) 
13.578441189385762

>  <path>  (2) 
/opt/xchem-fragalysis-2/maxwin/BulkDock/SCRATCH/511025/C46485-P96/C46485-P96.minimised.mol

>  <scratch_subdir>  (2) 
/opt/xchem-fragalysis-2/maxwin/BulkDock/SCRATCH/511025/C46485-P96

>  <fragmenstein_runtime>  (2) 
23.90650200843811

>  <fragmenstein_outcome>  (2) 
too moved

>  <fragmenstein_mode>  (2) 
expansion

>  <fragmenstein_error>  (2) 


$$$$
C18698-P122
     RDKit          3D

 49 51  0  0  0  0  0  0  0  0999 V2000
   -3.5226   -7.0042   19.0017 C   0  0  0  0  0  0  0  0  0  0  0  0
   -3.7254   -7.6299   17.6267 C   0  0  0  0  0  0  0  0  0  0  0  0
   -2.7064   -8.7452   17.2689 C   0  0  0  0  0  0  0  0  0  0  0  0
   -2.8719   -9.9421   18.2476 C   0  0  0  0  0  0  0  0  0  0  0  0
   -2.4132  -11.3220   18.0365 N   0  0  0  0  0  0  0  0  0  0  0  0
   -2.0637  -12.3207   18.9481 C   0  0  0  0  0  0  0  0  0  0  0  0
   -1.9704  -12.2871   20.1387 O   0  0  0  0  0  0  0  0  0  0  0  0
   -1.8161  -13.9856   18.3607 C   0  0  0  0  0  0  0  0  0  0  0  0
   -1.8596  -15.1730   19.6827 C   0  0  0  0  0  0  0  0  0  0  0  0
   -2.1704  -16.4341   19.3817 C   0  0  0  0  0  0  0  0  0  0  0  0
   -2.3715  -16.2111   18.0932 N   0  0  0  0  0  0  0  0  0  0  0  0
   -2.1380  -14.7398   17.3049 N   0  0  0  0  0  0  0  0  0  0  0  0
   -1.3788   -8.1322   17.1505 N   0  0  0  0  0  0  0  0  0  0  0  0
   -0.8488   -7.1991   16.1783 C   0  0  0  0  0  0  0  0  0  0  0  0
   -1.3367   -6.7542   15.1805 O   0  0  0  0  0  0  0  0  0  0  0  0
    0.5532   -6.6828   16.5005 C   0  0  0  0  0  0  0  0  0  0  0  0
    1.5008   -7.0425   17.5057 C   0  0  0  0  0  0  0  0  0  0  0  0
    2.5911   -6.2133   17.3304 C   0  0  0  0  0  0  0  0  0  0  0  0
    2.2932   -5.4342   16.2578 N   0  0  0  0  0  0  0  0  0  0  0  0
    3.0934   -4.3584   15.7180 C   0  0  0  0  0  0  0  0  0  0  0  0
    2.7397   -2.9902   16.3111 C   0  0  0  0  0  0  0  0  0  0  0  0
    3.1419   -1.9610   15.2515 C   0  0  0  0  0  0  0  0  0  0  0  0
    3.6155   -2.7571   14.0389 C   0  0  0  0  0  0  0  0  0  0  0  0
    2.9728   -4.1248   14.2099 C   0  0  0  0  0  0  0  0  0  0  0  0
    1.0895   -5.7004   15.7385 N   0  0  0  0  0  0  0  0  0  0  0  0
   -2.5201   -6.5782   19.1051 H   0  0  0  0  0  0  0  0  0  0  0  0
   -3.6734   -7.7344   19.8020 H   0  0  0  0  0  0  0  0  0  0  0  0
   -4.2460   -6.1962   19.1528 H   0  0  0  0  0  0  0  0  0  0  0  0
   -3.6727   -6.8328   16.8745 H   0  0  0  0  0  0  0  0  0  0  0  0
   -4.7431   -8.0360   17.5705 H   0  0  0  0  0  0  0  0  0  0  0  0
   -2.9889   -9.0525   16.2573 H   0  0  0  0  0  0  0  0  0  0  0  0
   -3.9467  -10.0756   18.4268 H   0  0  0  0  0  0  0  0  0  0  0  0
   -2.4484   -9.6517   19.2171 H   0  0  0  0  0  0  0  0  0  0  0  0
   -2.4688  -11.7274   17.1217 H   0  0  0  0  0  0  0  0  0  0  0  0
   -1.9733  -14.7725   20.6718 H   0  0  0  0  0  0  0  0  0  0  0  0
   -2.4177  -17.3328   19.9201 H   0  0  0  0  0  0  0  0  0  0  0  0
   -2.9144  -16.8021   17.4945 H   0  0  0  0  0  0  0  0  0  0  0  0
   -0.7187   -8.2218   17.9181 H   0  0  0  0  0  0  0  0  0  0  0  0
    1.4014   -7.8064   18.2641 H   0  0  0  0  0  0  0  0  0  0  0  0
    3.5226   -6.1150   17.8693 H   0  0  0  0  0  0  0  0  0  0  0  0
    4.1382   -4.6004   15.9481 H   0  0  0  0  0  0  0  0  0  0  0  0
    3.2560   -2.8174   17.2610 H   0  0  0  0  0  0  0  0  0  0  0  0
    1.6648   -2.9053   16.5144 H   0  0  0  0  0  0  0  0  0  0  0  0
    2.2774   -1.3405   14.9895 H   0  0  0  0  0  0  0  0  0  0  0  0
    3.9274   -1.2901   15.6141 H   0  0  0  0  0  0  0  0  0  0  0  0
    4.7079   -2.8489   14.0596 H   0  0  0  0  0  0  0  0  0  0  0  0
    3.3366   -2.2799   13.0950 H   0  0  0  0  0  0  0  0  0  0  0  0
    3.4727   -4.9004   13.6232 H   0  0  0  0  0  0  0  0  0  0  0  0
    1.9265   -4.0824   13.8836 H   0  0  0  0  0  0  0  0  0  0  0  0
  1  2  1  0
  2  3  1  0
  3  4  1  0
  4  5  1  0
  5  6  1  0
  6  7  2  0
  6  8  1  0
  8  9  1  0
  9 10  2  0
 10 11  1  0
 11 12  1  0
  3 13  1  0
 13 14  1  0
 14 15  2  0
 14 16  1  0
 16 17  1  0
 17 18  2  0
 18 19  1  0
 19 20  1  0
 20 21  1  0
 21 22  1  0
 22 23  1  0
 23 24  1  0
 19 25  1  0
 12  8  2  0
 25 16  2  0
 24 20  1  0
  1 26  1  0
  1 27  1  0
  1 28  1  0
  2 29  1  0
  2 30  1  0
  3 31  1  0
  4 32  1  0
  4 33  1  0
  5 34  1  0
  9 35  1  0
 10 36  1  0
 11 37  1  0
 13 38  1  0
 17 39  1  0
 18 40  1  0
 20 41  1  0
 21 42  1  0
 21 43  1  0
 22 44  1  0
 22 45  1  0
 23 46  1  0
 23 47  1  0
 24 48  1  0
 24 49  1  0
M  END
>  <Energy>  (3) 
203.63520224931611

>  <compound_id>  (3) 
18698

>  <target_id>  (3) 
1

>  <reference_id>  (3) 
122

>  <inspiration_ids>  (3) 
[122, 96]

>  <energy_score>  (3) 
88.89393479163914

>  <distance_score>  (3) 
14.289993093739389

>  <path>  (3) 
/opt/xchem-fragalysis-2/maxwin/BulkDock/SCRATCH/511025/C18698-P122/C18698-P122.minimised.mol

>  <scratch_subdir>  (3) 
/opt/xchem-fragalysis-2/maxwin/BulkDock/SCRATCH/511025/C18698-P122

>  <fragmenstein_runtime>  (3) 
40.66214942932129

>  <fragmenstein_outcome>  (3) 
too moved

>  <fragmenstein_mode>  (3) 
expansion

>  <fragmenstein_error>  (3) 


$$$$
C18698-P96
     RDKit          3D

 49 51  0  0  0  0  0  0  0  0999 V2000
    4.0366  -14.2235   22.6082 C   0  0  0  0  0  0  0  0  0  0  0  0
    3.3670  -15.2738   24.0670 C   0  0  0  0  0  0  0  0  0  0  0  0
    3.4267  -13.8207   25.3400 C   0  0  0  0  0  0  0  0  0  0  0  0
    1.6593  -14.3368   26.1184 C   0  0  0  0  0  0  0  0  0  0  0  0
    0.6488  -15.4140   26.8064 N   0  0  0  0  0  0  0  0  0  0  0  0
   -0.7357  -16.2394   26.1783 C   0  0  0  0  0  0  0  0  0  0  0  0
   -1.2652  -16.1575   25.1030 O   0  0  0  0  0  0  0  0  0  0  0  0
   -1.4607  -17.4705   27.1246 C   0  0  0  0  0  0  0  0  0  0  0  0
   -1.1996  -17.9693   28.4616 C   0  0  0  0  0  0  0  0  0  0  0  0
   -2.1548  -18.9254   28.7296 C   0  0  0  0  0  0  0  0  0  0  0  0
   -2.9111  -18.9936   27.6057 N   0  0  0  0  0  0  0  0  0  0  0  0
   -2.4254  -18.2577   26.6094 N   0  0  0  0  0  0  0  0  0  0  0  0
    3.6141  -11.8650   25.0739 N   0  0  0  0  0  0  0  0  0  0  0  0
    5.0060  -10.8257   24.3345 C   0  0  0  0  0  0  0  0  0  0  0  0
    6.0145  -11.2787   23.7929 O   0  0  0  0  0  0  0  0  0  0  0  0
    5.1382   -9.2814   24.4504 C   0  0  0  0  0  0  0  0  0  0  0  0
    4.9662   -8.4417   25.6072 C   0  0  0  0  0  0  0  0  0  0  0  0
    5.7084   -7.3033   25.3924 C   0  0  0  0  0  0  0  0  0  0  0  0
    6.4366   -7.5454   24.2658 N   0  0  0  0  0  0  0  0  0  0  0  0
    7.6604   -6.8521   23.9324 C   0  0  0  0  0  0  0  0  0  0  0  0
    7.4548   -5.4955   23.2692 C   0  0  0  0  0  0  0  0  0  0  0  0
    8.8755   -5.1295   22.8657 C   0  0  0  0  0  0  0  0  0  0  0  0
    9.5027   -6.4419   22.3995 C   0  0  0  0  0  0  0  0  0  0  0  0
    8.6371   -7.5594   22.9874 C   0  0  0  0  0  0  0  0  0  0  0  0
    6.0647   -8.6717   23.6399 N   0  0  0  0  0  0  0  0  0  0  0  0
    3.8560  -13.1609   22.8224 H   0  0  0  0  0  0  0  0  0  0  0  0
    3.4139  -14.4849   21.7943 H   0  0  0  0  0  0  0  0  0  0  0  0
    5.1164  -14.2713   22.4946 H   0  0  0  0  0  0  0  0  0  0  0  0
    2.4282  -15.7543   23.8358 H   0  0  0  0  0  0  0  0  0  0  0  0
    3.7529  -16.2953   24.2271 H   0  0  0  0  0  0  0  0  0  0  0  0
    3.8196  -14.0113   26.3247 H   0  0  0  0  0  0  0  0  0  0  0  0
    2.2322  -14.5229   26.9621 H   0  0  0  0  0  0  0  0  0  0  0  0
    1.2735  -13.3655   26.3584 H   0  0  0  0  0  0  0  0  0  0  0  0
    0.8865  -15.7743   27.7258 H   0  0  0  0  0  0  0  0  0  0  0  0
   -0.4457  -17.6265   29.1560 H   0  0  0  0  0  0  0  0  0  0  0  0
   -2.3679  -19.5195   29.6059 H   0  0  0  0  0  0  0  0  0  0  0  0
   -3.7389  -19.5505   27.4187 H   0  0  0  0  0  0  0  0  0  0  0  0
    2.8820  -11.2721   25.3691 H   0  0  0  0  0  0  0  0  0  0  0  0
    4.4521   -8.6873   26.5265 H   0  0  0  0  0  0  0  0  0  0  0  0
    5.8938   -6.4396   26.0163 H   0  0  0  0  0  0  0  0  0  0  0  0
    8.1823   -6.6986   24.8891 H   0  0  0  0  0  0  0  0  0  0  0  0
    7.0188   -4.7556   23.9476 H   0  0  0  0  0  0  0  0  0  0  0  0
    6.8039   -5.5770   22.3907 H   0  0  0  0  0  0  0  0  0  0  0  0
    8.9122   -4.3511   22.1025 H   0  0  0  0  0  0  0  0  0  0  0  0
    9.4227   -4.7535   23.7392 H   0  0  0  0  0  0  0  0  0  0  0  0
   10.5412   -6.5183   22.7382 H   0  0  0  0  0  0  0  0  0  0  0  0
    9.5102   -6.5063   21.3060 H   0  0  0  0  0  0  0  0  0  0  0  0
    9.2403   -8.3062   23.5145 H   0  0  0  0  0  0  0  0  0  0  0  0
    8.1160   -8.0780   22.1775 H   0  0  0  0  0  0  0  0  0  0  0  0
  1  2  1  0
  2  3  1  0
  3  4  1  0
  4  5  1  0
  5  6  1  0
  6  7  2  0
  6  8  1  0
  8  9  1  0
  9 10  2  0
 10 11  1  0
 11 12  1  0
  3 13  1  0
 13 14  1  0
 14 15  2  0
 14 16  1  0
 16 17  1  0
 17 18  2  0
 18 19  1  0
 19 20  1  0
 20 21  1  0
 21 22  1  0
 22 23  1  0
 23 24  1  0
 19 25  1  0
 12  8  2  0
 25 16  2  0
 24 20  1  0
  1 26  1  0
  1 27  1  0
  1 28  1  0
  2 29  1  0
  2 30  1  0
  3 31  1  0
  4 32  1  0
  4 33  1  0
  5 34  1  0
  9 35  1  0
 10 36  1  0
 11 37  1  0
 13 38  1  0
 17 39  1  0
 18 40  1  0
 20 41  1  0
 21 42  1  0
 21 43  1  0
 22 44  1  0
 22 45  1  0
 23 46  1  0
 23 47  1  0
 24 48  1  0
 24 49  1  0
M  END
>  <Energy>  (4) 
532.81570348686694

>  <compound_id>  (4) 
18698

>  <target_id>  (4) 
1

>  <reference_id>  (4) 
96

>  <inspiration_ids>  (4) 
[122, 96]

>  <energy_score>  (4) 
418.074436029181

>  <distance_score>  (4) 
11.900067871047433

>  <path>  (4) 
/opt/xchem-fragalysis-2/maxwin/BulkDock/SCRATCH/511025/C18698-P96/C18698-P96.minimised.mol

>  <scratch_subdir>  (4) 
/opt/xchem-fragalysis-2/maxwin/BulkDock/SCRATCH/511025/C18698-P96

>  <fragmenstein_runtime>  (4) 
31.042386531829834

>  <fragmenstein_outcome>  (4) 
too moved

>  <fragmenstein_mode>  (4) 
expansion

>  <fragmenstein_error>  (4) 


$$$$
C28366-P122
     RDKit          3D

 49 51  0  0  0  0  0  0  0  0999 V2000
   -0.7619  -20.6373   19.4131 C   0  0  0  0  0  0  0  0  0  0  0  0
   -0.7890  -19.1185   19.5415 C   0  0  0  0  0  0  0  0  0  0  0  0
   -0.6053  -18.5886   21.0098 C   0  0  0  0  0  0  0  0  0  0  0  0
    0.0906  -16.7185   20.5408 C   0  0  0  0  0  0  0  0  0  0  0  0
    1.6273  -15.4089   20.4856 N   0  0  0  0  0  0  0  0  0  0  0  0
    2.5916  -14.7933   19.0978 C   0  0  0  0  0  0  0  0  0  0  0  0
    2.5177  -15.1465   17.9438 O   0  0  0  0  0  0  0  0  0  0  0  0
    3.8967  -13.5950   19.3028 C   0  0  0  0  0  0  0  0  0  0  0  0
    4.2804  -12.5618   18.6459 C   0  0  0  0  0  0  0  0  0  0  0  0
    5.5324  -12.0806   19.0646 N   0  0  0  0  0  0  0  0  0  0  0  0
    5.5441  -12.4738   20.2860 N   0  0  0  0  0  0  0  0  0  0  0  0
    4.3431  -12.9948   20.5159 C   0  0  0  0  0  0  0  0  0  0  0  0
   -2.1144  -19.4905   21.8124 N   0  0  0  0  0  0  0  0  0  0  0  0
   -2.2728  -20.3958   23.3584 C   0  0  0  0  0  0  0  0  0  0  0  0
   -1.3877  -20.4725   24.1732 O   0  0  0  0  0  0  0  0  0  0  0  0
   -3.7351  -21.4810   23.8977 C   0  0  0  0  0  0  0  0  0  0  0  0
   -4.2068  -22.7112   23.2518 C   0  0  0  0  0  0  0  0  0  0  0  0
   -5.1034  -23.5221   24.0060 C   0  0  0  0  0  0  0  0  0  0  0  0
   -5.4341  -23.0357   25.3588 N   0  0  0  0  0  0  0  0  0  0  0  0
   -7.1988  -23.1476   26.0449 C   0  0  0  0  0  0  0  0  0  0  0  0
   -7.2780  -22.7053   27.4646 C   0  0  0  0  0  0  0  0  0  0  0  0
   -8.7608  -23.1326   28.0914 C   0  0  0  0  0  0  0  0  0  0  0  0
   -9.9758  -23.5711   27.3921 C   0  0  0  0  0  0  0  0  0  0  0  0
   -9.0142  -24.0670   26.4076 C   0  0  0  0  0  0  0  0  0  0  0  0
   -4.4009  -21.6611   25.2690 N   0  0  0  0  0  0  0  0  0  0  0  0
   -0.7865  -20.9201   18.3555 H   0  0  0  0  0  0  0  0  0  0  0  0
   -1.6212  -21.1101   19.8955 H   0  0  0  0  0  0  0  0  0  0  0  0
    0.1525  -21.0514   19.8496 H   0  0  0  0  0  0  0  0  0  0  0  0
    0.0210  -18.7366   18.9141 H   0  0  0  0  0  0  0  0  0  0  0  0
   -1.7310  -18.7322   19.1365 H   0  0  0  0  0  0  0  0  0  0  0  0
    0.2018  -19.2155   21.4031 H   0  0  0  0  0  0  0  0  0  0  0  0
   -0.7382  -16.2971   19.9696 H   0  0  0  0  0  0  0  0  0  0  0  0
   -0.2177  -16.3484   21.5005 H   0  0  0  0  0  0  0  0  0  0  0  0
    1.8624  -14.8303   21.3712 H   0  0  0  0  0  0  0  0  0  0  0  0
    3.8174  -12.1848   17.7330 H   0  0  0  0  0  0  0  0  0  0  0  0
    6.2745  -12.1265   20.8802 H   0  0  0  0  0  0  0  0  0  0  0  0
    3.7909  -12.9683   21.4313 H   0  0  0  0  0  0  0  0  0  0  0  0
   -2.9510  -19.6370   21.2568 H   0  0  0  0  0  0  0  0  0  0  0  0
   -3.8808  -23.0072   22.2625 H   0  0  0  0  0  0  0  0  0  0  0  0
   -5.6254  -24.4131   23.6935 H   0  0  0  0  0  0  0  0  0  0  0  0
   -7.2265  -23.8183   25.1774 H   0  0  0  0  0  0  0  0  0  0  0  0
   -6.4018  -23.0773   27.9804 H   0  0  0  0  0  0  0  0  0  0  0  0
   -7.2529  -21.6385   27.5806 H   0  0  0  0  0  0  0  0  0  0  0  0
   -8.6741  -24.0083   28.7481 H   0  0  0  0  0  0  0  0  0  0  0  0
   -9.2813  -22.2360   28.3815 H   0  0  0  0  0  0  0  0  0  0  0  0
  -10.7448  -22.8451   27.1026 H   0  0  0  0  0  0  0  0  0  0  0  0
  -10.5476  -24.3343   27.9451 H   0  0  0  0  0  0  0  0  0  0  0  0
   -9.6809  -24.2023   25.4990 H   0  0  0  0  0  0  0  0  0  0  0  0
   -9.0696  -25.0139   27.0235 H   0  0  0  0  0  0  0  0  0  0  0  0
  1  2  1  0
  2  3  1  0
  3  4  1  0
  4  5  1  0
  5  6  1  0
  6  7  2  0
  6  8  1  0
  8  9  1  0
  9 10  2  0
 10 11  1  0
 11 12  1  0
  3 13  1  0
 13 14  1  0
 14 15  2  0
 14 16  1  0
 16 17  1  0
 17 18  2  0
 18 19  1  0
 19 20  1  0
 20 21  1  0
 21 22  1  0
 22 23  1  0
 23 24  1  0
 19 25  1  0
 12  8  2  0
 25 16  2  0
 24 20  1  0
  1 26  1  0
  1 27  1  0
  1 28  1  0
  2 29  1  0
  2 30  1  0
  3 31  1  0
  4 32  1  0
  4 33  1  0
  5 34  1  0
  9 35  1  0
 11 36  1  0
 12 37  1  0
 13 38  1  0
 17 39  1  0
 18 40  1  0
 20 41  1  0
 21 42  1  0
 21 43  1  0
 22 44  1  0
 22 45  1  0
 23 46  1  0
 23 47  1  0
 24 48  1  0
 24 49  1  0
M  END
>  <Energy>  (5) 
924.61575267182491

>  <compound_id>  (5) 
28366

>  <target_id>  (5) 
1

>  <reference_id>  (5) 
122

>  <inspiration_ids>  (5) 
[122, 96]

>  <energy_score>  (5) 
853.1012846920048

>  <distance_score>  (5) 
10.73422482291025

>  <path>  (5) 
/opt/xchem-fragalysis-2/maxwin/BulkDock/SCRATCH/511025/C28366-P122/C28366-P122.minimised.mol

>  <scratch_subdir>  (5) 
/opt/xchem-fragalysis-2/maxwin/BulkDock/SCRATCH/511025/C28366-P122

>  <fragmenstein_runtime>  (5) 
36.520660400390625

>  <fragmenstein_outcome>  (5) 
too moved

>  <fragmenstein_mode>  (5) 
expansion

>  <fragmenstein_error>  (5) 


$$$$
C28366-P96
     RDKit          3D

 49 51  0  0  0  0  0  0  0  0999 V2000
   -0.9158  -16.8018   19.9484 C   0  0  0  0  0  0  0  0  0  0  0  0
   -0.7604  -15.2219   19.9016 C   0  0  0  0  0  0  0  0  0  0  0  0
   -0.8500  -13.5167   20.9254 C   0  0  0  0  0  0  0  0  0  0  0  0
    1.0430  -13.0448   21.7393 C   0  0  0  0  0  0  0  0  0  0  0  0
    2.1781  -12.5226   20.7266 N   0  0  0  0  0  0  0  0  0  0  0  0
    2.4963  -11.1199   20.2570 C   0  0  0  0  0  0  0  0  0  0  0  0
    2.0546  -10.0763   20.6029 O   0  0  0  0  0  0  0  0  0  0  0  0
    3.4863  -11.0233   19.0142 C   0  0  0  0  0  0  0  0  0  0  0  0
    4.5087  -10.0863   18.7529 C   0  0  0  0  0  0  0  0  0  0  0  0
    5.2432  -10.3586   17.7263 N   0  0  0  0  0  0  0  0  0  0  0  0
    4.6478  -11.4664   17.4248 N   0  0  0  0  0  0  0  0  0  0  0  0
    3.4395  -11.6524   17.8223 C   0  0  0  0  0  0  0  0  0  0  0  0
   -1.7385  -13.5174   22.6151 N   0  0  0  0  0  0  0  0  0  0  0  0
   -3.2890  -14.0619   23.0686 C   0  0  0  0  0  0  0  0  0  0  0  0
   -4.1358  -14.6462   22.4195 O   0  0  0  0  0  0  0  0  0  0  0  0
   -3.7269  -13.9156   24.5091 C   0  0  0  0  0  0  0  0  0  0  0  0
   -3.8176  -14.9728   25.4831 C   0  0  0  0  0  0  0  0  0  0  0  0
   -4.6399  -14.5125   26.4827 C   0  0  0  0  0  0  0  0  0  0  0  0
   -4.9936  -13.2531   26.1048 N   0  0  0  0  0  0  0  0  0  0  0  0
   -5.7937  -12.2942   26.8357 C   0  0  0  0  0  0  0  0  0  0  0  0
   -5.2582  -11.9481   28.2354 C   0  0  0  0  0  0  0  0  0  0  0  0
   -6.4869  -11.8552   29.1412 C   0  0  0  0  0  0  0  0  0  0  0  0
   -7.6805  -11.8150   28.1985 C   0  0  0  0  0  0  0  0  0  0  0  0
   -7.2472  -12.7127   27.0503 C   0  0  0  0  0  0  0  0  0  0  0  0
   -4.4840  -12.8825   24.9110 N   0  0  0  0  0  0  0  0  0  0  0  0
   -0.4185  -17.3676   20.7249 H   0  0  0  0  0  0  0  0  0  0  0  0
   -0.5421  -17.2104   19.0029 H   0  0  0  0  0  0  0  0  0  0  0  0
   -1.9624  -17.1331   19.9132 H   0  0  0  0  0  0  0  0  0  0  0  0
   -1.6503  -15.1624   19.2160 H   0  0  0  0  0  0  0  0  0  0  0  0
    0.0771  -15.0762   19.2316 H   0  0  0  0  0  0  0  0  0  0  0  0
   -1.0335  -12.6013   20.5344 H   0  0  0  0  0  0  0  0  0  0  0  0
    1.7691  -13.7484   21.9785 H   0  0  0  0  0  0  0  0  0  0  0  0
    0.9175  -12.0231   22.2414 H   0  0  0  0  0  0  0  0  0  0  0  0
    2.6615  -13.1639   20.1752 H   0  0  0  0  0  0  0  0  0  0  0  0
    4.7825   -9.3157   19.4362 H   0  0  0  0  0  0  0  0  0  0  0  0
    5.0638  -12.2664   17.0344 H   0  0  0  0  0  0  0  0  0  0  0  0
    2.8902  -12.3787   17.2457 H   0  0  0  0  0  0  0  0  0  0  0  0
   -1.3387  -13.0063   23.3456 H   0  0  0  0  0  0  0  0  0  0  0  0
   -3.3866  -15.9589   25.4340 H   0  0  0  0  0  0  0  0  0  0  0  0
   -5.0033  -14.9703   27.3930 H   0  0  0  0  0  0  0  0  0  0  0  0
   -5.7935  -11.3668   26.2442 H   0  0  0  0  0  0  0  0  0  0  0  0
   -4.5504  -12.6856   28.6289 H   0  0  0  0  0  0  0  0  0  0  0  0
   -4.7307  -10.9873   28.2040 H   0  0  0  0  0  0  0  0  0  0  0  0
   -6.5423  -12.7476   29.7757 H   0  0  0  0  0  0  0  0  0  0  0  0
   -6.4508  -10.9816   29.7988 H   0  0  0  0  0  0  0  0  0  0  0  0
   -7.8430  -10.7918   27.8389 H   0  0  0  0  0  0  0  0  0  0  0  0
   -8.6017  -12.1545   28.6774 H   0  0  0  0  0  0  0  0  0  0  0  0
   -7.8581  -12.5623   26.1547 H   0  0  0  0  0  0  0  0  0  0  0  0
   -7.3256  -13.7676   27.3371 H   0  0  0  0  0  0  0  0  0  0  0  0
  1  2  1  0
  2  3  1  0
  3  4  1  0
  4  5  1  0
  5  6  1  0
  6  7  2  0
  6  8  1  0
  8  9  1  0
  9 10  2  0
 10 11  1  0
 11 12  1  0
  3 13  1  0
 13 14  1  0
 14 15  2  0
 14 16  1  0
 16 17  1  0
 17 18  2  0
 18 19  1  0
 19 20  1  0
 20 21  1  0
 21 22  1  0
 22 23  1  0
 23 24  1  0
 19 25  1  0
 12  8  2  0
 25 16  2  0
 24 20  1  0
  1 26  1  0
  1 27  1  0
  1 28  1  0
  2 29  1  0
  2 30  1  0
  3 31  1  0
  4 32  1  0
  4 33  1  0
  5 34  1  0
  9 35  1  0
 11 36  1  0
 12 37  1  0
 13 38  1  0
 17 39  1  0
 18 40  1  0
 20 41  1  0
 21 42  1  0
 21 43  1  0
 22 44  1  0
 22 45  1  0
 23 46  1  0
 23 47  1  0
 24 48  1  0
 24 49  1  0
M  END
>  <Energy>  (6) 
375.8436369701717

>  <compound_id>  (6) 
28366

>  <target_id>  (6) 
1

>  <reference_id>  (6) 
96

>  <inspiration_ids>  (6) 
[122, 96]

>  <energy_score>  (6) 
304.3291689903475

>  <distance_score>  (6) 
12.133449119823625

>  <path>  (6) 
/opt/xchem-fragalysis-2/maxwin/BulkDock/SCRATCH/511025/C28366-P96/C28366-P96.minimised.mol

>  <scratch_subdir>  (6) 
/opt/xchem-fragalysis-2/maxwin/BulkDock/SCRATCH/511025/C28366-P96

>  <fragmenstein_runtime>  (6) 
34.366634368896484

>  <fragmenstein_outcome>  (6) 
too moved

>  <fragmenstein_mode>  (6) 
expansion

>  <fragmenstein_error>  (6) 


$$$$
C46486-P122
     RDKit          3D

 44 47  0  0  0  0  0  0  0  0999 V2000
   -8.8619  -14.8933   23.1674 O   0  0  0  0  0  0  0  0  0  0  0  0
   -7.8723  -15.1061   24.4921 S   0  0  0  0  0  0  0  0  0  0  0  0
   -8.9687  -15.1831   25.9980 C   0  0  0  0  0  0  0  0  0  0  0  0
   -8.8685  -16.4511   26.8640 C   0  0  0  0  0  0  0  0  0  0  0  0
   -7.8783  -16.6706   27.7986 C   0  0  0  0  0  0  0  0  0  0  0  0
   -8.1550  -17.9486   28.3927 C   0  0  0  0  0  0  0  0  0  0  0  0
   -9.1836  -18.8257   27.9520 N   0  0  0  0  0  0  0  0  0  0  0  0
   -9.9557  -20.5868   28.6968 C   0  0  0  0  0  0  0  0  0  0  0  0
  -10.8651  -21.9548   27.9181 C   0  0  0  0  0  0  0  0  0  0  0  0
  -11.8473  -22.6673   28.8198 C   0  0  0  0  0  0  0  0  0  0  0  0
  -11.4814  -22.2835   30.1952 C   0  0  0  0  0  0  0  0  0  0  0  0
  -10.9519  -20.8838   29.9270 C   0  0  0  0  0  0  0  0  0  0  0  0
   -9.7584  -17.5161   26.9176 N   0  0  0  0  0  0  0  0  0  0  0  0
   -6.8739  -13.5434   24.6775 C   0  0  0  0  0  0  0  0  0  0  0  0
   -5.6560  -13.7356   25.5081 C   0  0  0  0  0  0  0  0  0  0  0  0
   -5.4539  -12.9783   26.6064 N   0  0  0  0  0  0  0  0  0  0  0  0
   -4.3083  -13.4350   27.1540 N   0  0  0  0  0  0  0  0  0  0  0  0
   -3.8275  -14.4954   26.4814 C   0  0  0  0  0  0  0  0  0  0  0  0
   -4.6768  -14.7247   25.4439 C   0  0  0  0  0  0  0  0  0  0  0  0
   -4.4486  -16.0501   24.8599 C   0  0  0  0  0  0  0  0  0  0  0  0
   -3.6899  -16.7504   26.0535 C   0  0  0  0  0  0  0  0  0  0  0  0
   -2.9176  -15.6072   26.7979 C   0  0  0  0  0  0  0  0  0  0  0  0
   -9.9964  -15.0705   25.6392 H   0  0  0  0  0  0  0  0  0  0  0  0
   -8.7325  -14.3060   26.6097 H   0  0  0  0  0  0  0  0  0  0  0  0
   -7.0186  -16.0343   27.9806 H   0  0  0  0  0  0  0  0  0  0  0  0
   -7.7269  -18.3447   29.2546 H   0  0  0  0  0  0  0  0  0  0  0  0
   -9.4926  -20.8956   27.7622 H   0  0  0  0  0  0  0  0  0  0  0  0
  -10.1558  -22.7861   27.7908 H   0  0  0  0  0  0  0  0  0  0  0  0
  -11.3568  -21.6829   26.9878 H   0  0  0  0  0  0  0  0  0  0  0  0
  -12.8236  -22.2659   28.6122 H   0  0  0  0  0  0  0  0  0  0  0  0
  -11.8613  -23.7507   28.6705 H   0  0  0  0  0  0  0  0  0  0  0  0
  -10.8281  -22.9896   30.6997 H   0  0  0  0  0  0  0  0  0  0  0  0
  -12.3698  -22.2326   30.8366 H   0  0  0  0  0  0  0  0  0  0  0  0
  -11.9111  -20.4782   29.5991 H   0  0  0  0  0  0  0  0  0  0  0  0
  -10.6006  -20.5861   30.9108 H   0  0  0  0  0  0  0  0  0  0  0  0
   -7.5422  -12.7751   25.0779 H   0  0  0  0  0  0  0  0  0  0  0  0
   -6.5829  -13.2475   23.6659 H   0  0  0  0  0  0  0  0  0  0  0  0
   -4.0098  -13.0416   28.0405 H   0  0  0  0  0  0  0  0  0  0  0  0
   -5.3464  -16.5918   24.5760 H   0  0  0  0  0  0  0  0  0  0  0  0
   -3.8334  -15.9316   23.9762 H   0  0  0  0  0  0  0  0  0  0  0  0
   -3.0557  -17.5884   25.7599 H   0  0  0  0  0  0  0  0  0  0  0  0
   -4.4320  -17.1579   26.7532 H   0  0  0  0  0  0  0  0  0  0  0  0
   -1.9298  -15.4513   26.3541 H   0  0  0  0  0  0  0  0  0  0  0  0
   -2.8263  -15.8153   27.8665 H   0  0  0  0  0  0  0  0  0  0  0  0
  1  2  1  0
  2  3  1  0
  3  4  1  0
  4  5  1  0
  5  6  2  0
  6  7  1  0
  7  8  1  0
  8  9  1  0
  9 10  1  0
 10 11  1  0
 11 12  1  0
  7 13  1  0
  2 14  1  0
 14 15  1  0
 15 16  2  0
 16 17  1  0
 17 18  1  0
 18 19  2  0
 19 20  1  0
 20 21  1  0
 21 22  1  0
 13  4  2  0
 19 15  1  0
 12  8  1  0
 22 18  1  0
  3 23  1  0
  3 24  1  0
  5 25  1  0
  6 26  1  0
  8 27  1  0
  9 28  1  0
  9 29  1  0
 10 30  1  0
 10 31  1  0
 11 32  1  0
 11 33  1  0
 12 34  1  0
 12 35  1  0
 14 36  1  0
 14 37  1  0
 17 38  1  0
 20 39  1  0
 20 40  1  0
 21 41  1  0
 21 42  1  0
 22 43  1  0
 22 44  1  0
M  CHG  2   1  -1   2   1
M  END
>  <Energy>  (7) 
431.76817531578098

>  <compound_id>  (7) 
46486

>  <target_id>  (7) 
1

>  <reference_id>  (7) 
122

>  <inspiration_ids>  (7) 
[122, 96]

>  <energy_score>  (7) 
332.60963751829007

>  <distance_score>  (7) 
16.246812597987194

>  <path>  (7) 
/opt/xchem-fragalysis-2/maxwin/BulkDock/SCRATCH/511025/C46486-P122/C46486-P122.minimised.mol

>  <scratch_subdir>  (7) 
/opt/xchem-fragalysis-2/maxwin/BulkDock/SCRATCH/511025/C46486-P122

>  <fragmenstein_runtime>  (7) 
15.544278860092163

>  <fragmenstein_outcome>  (7) 
too moved

>  <fragmenstein_mode>  (7) 
expansion

>  <fragmenstein_error>  (7) 


$$$$
C46486-P96
     RDKit          3D

 44 47  0  0  0  0  0  0  0  0999 V2000
    5.7569  -15.6847   26.2070 O   0  0  0  0  0  0  0  0  0  0  0  0
    5.1980  -15.9742   24.6659 S   0  0  0  0  0  0  0  0  0  0  0  0
    3.3360  -16.2588   24.7825 C   0  0  0  0  0  0  0  0  0  0  0  0
    2.6382  -17.4022   25.5126 C   0  0  0  0  0  0  0  0  0  0  0  0
    2.7084  -18.8093   25.3325 C   0  0  0  0  0  0  0  0  0  0  0  0
    1.6794  -19.3455   26.0826 C   0  0  0  0  0  0  0  0  0  0  0  0
    1.0503  -18.2873   26.6649 N   0  0  0  0  0  0  0  0  0  0  0  0
   -0.0921  -18.3328   27.5670 C   0  0  0  0  0  0  0  0  0  0  0  0
   -1.3201  -17.5957   27.0012 C   0  0  0  0  0  0  0  0  0  0  0  0
   -1.6534  -16.4891   28.0006 C   0  0  0  0  0  0  0  0  0  0  0  0
   -0.3779  -16.2698   28.7948 C   0  0  0  0  0  0  0  0  0  0  0  0
    0.1985  -17.6728   28.9214 C   0  0  0  0  0  0  0  0  0  0  0  0
    1.5882  -17.1045   26.3106 N   0  0  0  0  0  0  0  0  0  0  0  0
    5.1523  -14.2578   23.7791 C   0  0  0  0  0  0  0  0  0  0  0  0
    6.4400  -13.5926   23.3118 C   0  0  0  0  0  0  0  0  0  0  0  0
    7.0344  -13.9170   22.1343 N   0  0  0  0  0  0  0  0  0  0  0  0
    8.0209  -12.9891   21.9522 N   0  0  0  0  0  0  0  0  0  0  0  0
    8.0167  -12.0694   22.9334 C   0  0  0  0  0  0  0  0  0  0  0  0
    7.0428  -12.4227   23.8188 C   0  0  0  0  0  0  0  0  0  0  0  0
    6.9438  -11.4575   24.9274 C   0  0  0  0  0  0  0  0  0  0  0  0
    7.8444  -10.2779   24.4043 C   0  0  0  0  0  0  0  0  0  0  0  0
    8.7608  -10.8506   23.2639 C   0  0  0  0  0  0  0  0  0  0  0  0
    3.0042  -15.3391   25.2646 H   0  0  0  0  0  0  0  0  0  0  0  0
    3.0192  -16.2961   23.7403 H   0  0  0  0  0  0  0  0  0  0  0  0
    3.3969  -19.3570   24.7039 H   0  0  0  0  0  0  0  0  0  0  0  0
    1.3589  -20.3662   26.2356 H   0  0  0  0  0  0  0  0  0  0  0  0
   -0.3234  -19.3946   27.7163 H   0  0  0  0  0  0  0  0  0  0  0  0
   -1.1319  -17.1700   26.0088 H   0  0  0  0  0  0  0  0  0  0  0  0
   -2.1723  -18.2771   26.8984 H   0  0  0  0  0  0  0  0  0  0  0  0
   -2.4512  -16.8244   28.6725 H   0  0  0  0  0  0  0  0  0  0  0  0
   -1.9972  -15.5757   27.5060 H   0  0  0  0  0  0  0  0  0  0  0  0
   -0.5721  -15.8137   29.7700 H   0  0  0  0  0  0  0  0  0  0  0  0
    0.3067  -15.6141   28.2457 H   0  0  0  0  0  0  0  0  0  0  0  0
    1.2601  -17.6594   29.1883 H   0  0  0  0  0  0  0  0  0  0  0  0
   -0.3390  -18.2122   29.7114 H   0  0  0  0  0  0  0  0  0  0  0  0
    4.6249  -13.5978   24.4751 H   0  0  0  0  0  0  0  0  0  0  0  0
    4.5240  -14.4313   22.9077 H   0  0  0  0  0  0  0  0  0  0  0  0
    8.6212  -13.0672   21.1365 H   0  0  0  0  0  0  0  0  0  0  0  0
    7.3626  -11.8772   25.8475 H   0  0  0  0  0  0  0  0  0  0  0  0
    5.9206  -11.1196   25.1115 H   0  0  0  0  0  0  0  0  0  0  0  0
    7.1953   -9.4999   23.9803 H   0  0  0  0  0  0  0  0  0  0  0  0
    8.4263   -9.8164   25.2084 H   0  0  0  0  0  0  0  0  0  0  0  0
    8.8420  -10.1485   22.4304 H   0  0  0  0  0  0  0  0  0  0  0  0
    9.7562  -11.0854   23.6526 H   0  0  0  0  0  0  0  0  0  0  0  0
  1  2  1  0
  2  3  1  0
  3  4  1  0
  4  5  1  0
  5  6  2  0
  6  7  1  0
  7  8  1  0
  8  9  1  0
  9 10  1  0
 10 11  1  0
 11 12  1  0
  7 13  1  0
  2 14  1  0
 14 15  1  0
 15 16  2  0
 16 17  1  0
 17 18  1  0
 18 19  2  0
 19 20  1  0
 20 21  1  0
 21 22  1  0
 13  4  2  0
 19 15  1  0
 12  8  1  0
 22 18  1  0
  3 23  1  0
  3 24  1  0
  5 25  1  0
  6 26  1  0
  8 27  1  0
  9 28  1  0
  9 29  1  0
 10 30  1  0
 10 31  1  0
 11 32  1  0
 11 33  1  0
 12 34  1  0
 12 35  1  0
 14 36  1  0
 14 37  1  0
 17 38  1  0
 20 39  1  0
 20 40  1  0
 21 41  1  0
 21 42  1  0
 22 43  1  0
 22 44  1  0
M  CHG  2   1  -1   2   1
M  END
>  <Energy>  (8) 
90.161878638037123

>  <compound_id>  (8) 
46486

>  <target_id>  (8) 
1

>  <reference_id>  (8) 
96

>  <inspiration_ids>  (8) 
[122, 96]

>  <energy_score>  (8) 
-8.996659159451127

>  <distance_score>  (8) 
14.239064966619301

>  <path>  (8) 
/opt/xchem-fragalysis-2/maxwin/BulkDock/SCRATCH/511025/C46486-P96/C46486-P96.minimised.mol

>  <scratch_subdir>  (8) 
/opt/xchem-fragalysis-2/maxwin/BulkDock/SCRATCH/511025/C46486-P96

>  <fragmenstein_runtime>  (8) 
19.29390788078308

>  <fragmenstein_outcome>  (8) 
too moved

>  <fragmenstein_mode>  (8) 
expansion

>  <fragmenstein_error>  (8) 


$$$$
C28367-P122
     RDKit          3D

 47 49  0  0  0  0  0  0  0  0999 V2000
    0.4953   -8.5164   18.3218 O   0  0  0  0  0  0  0  0  0  0  0  0
    1.4401   -8.7534   19.0495 C   0  0  0  0  0  0  0  0  0  0  0  0
    1.3272   -9.4677   20.7052 N   0  0  0  0  0  0  0  0  0  0  0  0
   -0.0112  -10.0853   21.5865 C   0  0  0  0  0  0  0  0  0  0  0  0
    0.3267  -11.7401   22.7086 C   0  0  0  0  0  0  0  0  0  0  0  0
    1.7120  -11.8842   22.9888 O   0  0  0  0  0  0  0  0  0  0  0  0
   -0.2242  -13.7395   23.2410 C   0  0  0  0  0  0  0  0  0  0  0  0
   -1.1783  -14.1110   24.8170 N   0  0  0  0  0  0  0  0  0  0  0  0
   -2.5511  -14.9921   25.0620 C   0  0  0  0  0  0  0  0  0  0  0  0
   -3.1857  -15.6566   24.2780 O   0  0  0  0  0  0  0  0  0  0  0  0
   -3.2497  -14.9773   26.4090 C   0  0  0  0  0  0  0  0  0  0  0  0
   -4.6846  -15.0758   26.4991 C   0  0  0  0  0  0  0  0  0  0  0  0
   -4.9659  -15.5379   27.7571 C   0  0  0  0  0  0  0  0  0  0  0  0
   -3.7606  -15.6690   28.3758 N   0  0  0  0  0  0  0  0  0  0  0  0
   -3.5651  -16.1800   29.7168 C   0  0  0  0  0  0  0  0  0  0  0  0
   -3.6563  -15.0984   30.8019 C   0  0  0  0  0  0  0  0  0  0  0  0
   -2.6244  -15.4776   31.8656 C   0  0  0  0  0  0  0  0  0  0  0  0
   -2.1455  -16.8750   31.4977 C   0  0  0  0  0  0  0  0  0  0  0  0
   -2.2353  -16.8917   29.9806 C   0  0  0  0  0  0  0  0  0  0  0  0
   -2.7122  -15.3068   27.5979 N   0  0  0  0  0  0  0  0  0  0  0  0
    3.0492   -8.4252   18.1326 C   0  0  0  0  0  0  0  0  0  0  0  0
    4.1655   -6.9977   17.9909 C   0  0  0  0  0  0  0  0  0  0  0  0
    5.3627   -6.7859   17.5173 N   0  0  0  0  0  0  0  0  0  0  0  0
    5.6194   -7.5762   18.5093 N   0  0  0  0  0  0  0  0  0  0  0  0
    4.5948   -8.8566   18.4305 C   0  0  0  0  0  0  0  0  0  0  0  0
    2.2009   -9.4845   21.1084 H   0  0  0  0  0  0  0  0  0  0  0  0
   -0.8891  -10.2294   20.9443 H   0  0  0  0  0  0  0  0  0  0  0  0
   -0.2589   -9.2716   22.2720 H   0  0  0  0  0  0  0  0  0  0  0  0
   -0.6549  -11.6952   22.1741 H   0  0  0  0  0  0  0  0  0  0  0  0
    1.7633  -12.0594   23.9535 H   0  0  0  0  0  0  0  0  0  0  0  0
    0.6848  -14.1409   23.7584 H   0  0  0  0  0  0  0  0  0  0  0  0
   -0.4200  -14.4689   22.4644 H   0  0  0  0  0  0  0  0  0  0  0  0
   -0.9525  -13.6081   25.6425 H   0  0  0  0  0  0  0  0  0  0  0  0
   -5.3886  -14.9460   25.6878 H   0  0  0  0  0  0  0  0  0  0  0  0
   -5.8935  -15.8231   28.2278 H   0  0  0  0  0  0  0  0  0  0  0  0
   -4.3719  -16.9077   29.8863 H   0  0  0  0  0  0  0  0  0  0  0  0
   -4.6650  -15.0787   31.2306 H   0  0  0  0  0  0  0  0  0  0  0  0
   -3.4549  -14.0929   30.4164 H   0  0  0  0  0  0  0  0  0  0  0  0
   -1.7843  -14.7744   31.8307 H   0  0  0  0  0  0  0  0  0  0  0  0
   -3.0424  -15.4412   32.8763 H   0  0  0  0  0  0  0  0  0  0  0  0
   -2.8169  -17.6290   31.9256 H   0  0  0  0  0  0  0  0  0  0  0  0
   -1.1327  -17.0752   31.8586 H   0  0  0  0  0  0  0  0  0  0  0  0
   -1.3831  -16.3496   29.5549 H   0  0  0  0  0  0  0  0  0  0  0  0
   -2.2239  -17.9084   29.5757 H   0  0  0  0  0  0  0  0  0  0  0  0
    4.2118   -6.3991   18.9409 H   0  0  0  0  0  0  0  0  0  0  0  0
    6.5557   -7.6670   18.8969 H   0  0  0  0  0  0  0  0  0  0  0  0
    5.1913   -9.7162   18.4796 H   0  0  0  0  0  0  0  0  0  0  0  0
  1  2  2  0
  2  3  1  0
  3  4  1  0
  4  5  1  0
  5  6  1  0
  5  7  1  0
  7  8  1  0
  8  9  1  0
  9 10  2  0
  9 11  1  0
 11 12  1  0
 12 13  2  0
 13 14  1  0
 14 15  1  0
 15 16  1  0
 16 17  1  0
 17 18  1  0
 18 19  1  0
 14 20  1  0
  2 21  1  0
 21 22  1  0
 22 23  2  0
 23 24  1  0
 24 25  1  0
 20 11  2  0
 25 21  2  0
 19 15  1  0
  3 26  1  0
  4 27  1  0
  4 28  1  0
  5 29  1  0
  6 30  1  0
  7 31  1  0
  7 32  1  0
  8 33  1  0
 12 34  1  0
 13 35  1  0
 15 36  1  0
 16 37  1  0
 16 38  1  0
 17 39  1  0
 17 40  1  0
 18 41  1  0
 18 42  1  0
 19 43  1  0
 19 44  1  0
 22 45  1  0
 24 46  1  0
 25 47  1  0
M  END
>  <Energy>  (9) 
734.54074621938321

>  <compound_id>  (9) 
28367

>  <target_id>  (9) 
1

>  <reference_id>  (9) 
122

>  <inspiration_ids>  (9) 
[122, 96]

>  <energy_score>  (9) 
643.951685275878

>  <distance_score>  (9) 
10.735119254213343

>  <path>  (9) 
/opt/xchem-fragalysis-2/maxwin/BulkDock/SCRATCH/511025/C28367-P122/C28367-P122.minimised.mol

>  <scratch_subdir>  (9) 
/opt/xchem-fragalysis-2/maxwin/BulkDock/SCRATCH/511025/C28367-P122

>  <fragmenstein_runtime>  (9) 
39.14845418930054

>  <fragmenstein_outcome>  (9) 
too moved

>  <fragmenstein_mode>  (9) 
expansion

>  <fragmenstein_error>  (9) 


$$$$
C28367-P96
     RDKit          3D

 47 49  0  0  0  0  0  0  0  0999 V2000
    5.3030  -10.5883   23.3000 O   0  0  0  0  0  0  0  0  0  0  0  0
    5.1133  -10.3365   24.4561 C   0  0  0  0  0  0  0  0  0  0  0  0
    3.9468  -10.7837   25.4149 N   0  0  0  0  0  0  0  0  0  0  0  0
    2.2957  -11.7987   25.0430 C   0  0  0  0  0  0  0  0  0  0  0  0
    0.3634  -11.5648   24.2252 C   0  0  0  0  0  0  0  0  0  0  0  0
    1.1446  -11.2611   22.7243 O   0  0  0  0  0  0  0  0  0  0  0  0
   -1.6989  -12.3021   23.8890 C   0  0  0  0  0  0  0  0  0  0  0  0
   -2.8021  -13.4800   25.0538 N   0  0  0  0  0  0  0  0  0  0  0  0
   -4.0969  -14.6861   24.6554 C   0  0  0  0  0  0  0  0  0  0  0  0
   -4.5157  -14.8351   23.5410 O   0  0  0  0  0  0  0  0  0  0  0  0
   -4.8682  -16.0039   25.8135 C   0  0  0  0  0  0  0  0  0  0  0  0
   -4.0550  -17.1830   26.2750 C   0  0  0  0  0  0  0  0  0  0  0  0
   -4.7422  -18.3822   26.6211 C   0  0  0  0  0  0  0  0  0  0  0  0
   -6.1618  -18.3073   26.5105 N   0  0  0  0  0  0  0  0  0  0  0  0
   -7.3658  -19.6135   27.2102 C   0  0  0  0  0  0  0  0  0  0  0  0
   -9.2976  -19.9895   27.9270 C   0  0  0  0  0  0  0  0  0  0  0  0
   -9.6280  -21.4246   28.3817 C   0  0  0  0  0  0  0  0  0  0  0  0
   -8.3252  -22.0806   28.1453 C   0  0  0  0  0  0  0  0  0  0  0  0
   -6.9344  -21.0962   27.4394 C   0  0  0  0  0  0  0  0  0  0  0  0
   -6.2646  -16.7174   25.9187 N   0  0  0  0  0  0  0  0  0  0  0  0
    6.1307   -9.3572   24.9353 C   0  0  0  0  0  0  0  0  0  0  0  0
    6.0632   -8.2446   25.8032 C   0  0  0  0  0  0  0  0  0  0  0  0
    7.1283   -7.4351   25.7131 N   0  0  0  0  0  0  0  0  0  0  0  0
    7.8915   -8.0103   24.7727 N   0  0  0  0  0  0  0  0  0  0  0  0
    7.3445   -9.1491   24.2762 C   0  0  0  0  0  0  0  0  0  0  0  0
    4.0521  -10.3228   26.3050 H   0  0  0  0  0  0  0  0  0  0  0  0
    2.2271  -12.4380   25.9246 H   0  0  0  0  0  0  0  0  0  0  0  0
    2.9126  -12.1814   24.2004 H   0  0  0  0  0  0  0  0  0  0  0  0
    0.1957  -10.5174   24.5372 H   0  0  0  0  0  0  0  0  0  0  0  0
    0.6158  -10.5327   22.3715 H   0  0  0  0  0  0  0  0  0  0  0  0
   -2.4656  -11.5281   23.8124 H   0  0  0  0  0  0  0  0  0  0  0  0
   -1.5279  -12.9735   23.0335 H   0  0  0  0  0  0  0  0  0  0  0  0
   -2.5465  -13.5825   26.0314 H   0  0  0  0  0  0  0  0  0  0  0  0
   -2.9729  -17.1565   26.2288 H   0  0  0  0  0  0  0  0  0  0  0  0
   -4.3203  -19.3267   26.9325 H   0  0  0  0  0  0  0  0  0  0  0  0
   -7.3178  -18.6355   27.7708 H   0  0  0  0  0  0  0  0  0  0  0  0
  -10.0705  -20.0465   27.1539 H   0  0  0  0  0  0  0  0  0  0  0  0
   -9.6725  -19.5318   28.8811 H   0  0  0  0  0  0  0  0  0  0  0  0
  -10.1019  -21.5107   29.3650 H   0  0  0  0  0  0  0  0  0  0  0  0
  -10.4130  -21.8816   27.7529 H   0  0  0  0  0  0  0  0  0  0  0  0
   -8.6353  -22.7979   27.3652 H   0  0  0  0  0  0  0  0  0  0  0  0
   -8.1180  -22.7132   29.0154 H   0  0  0  0  0  0  0  0  0  0  0  0
   -6.7208  -21.5295   26.4560 H   0  0  0  0  0  0  0  0  0  0  0  0
   -5.9818  -21.2775   27.9061 H   0  0  0  0  0  0  0  0  0  0  0  0
    5.2574   -7.9587   26.4672 H   0  0  0  0  0  0  0  0  0  0  0  0
    8.7671   -7.5652   24.5175 H   0  0  0  0  0  0  0  0  0  0  0  0
    7.8085   -9.6961   23.4655 H   0  0  0  0  0  0  0  0  0  0  0  0
  1  2  2  0
  2  3  1  0
  3  4  1  0
  4  5  1  0
  5  6  1  0
  5  7  1  0
  7  8  1  0
  8  9  1  0
  9 10  2  0
  9 11  1  0
 11 12  1  0
 12 13  2  0
 13 14  1  0
 14 15  1  0
 15 16  1  0
 16 17  1  0
 17 18  1  0
 18 19  1  0
 14 20  1  0
  2 21  1  0
 21 22  1  0
 22 23  2  0
 23 24  1  0
 24 25  1  0
 20 11  2  0
 25 21  2  0
 19 15  1  0
  3 26  1  0
  4 27  1  0
  4 28  1  0
  5 29  1  0
  6 30  1  0
  7 31  1  0
  7 32  1  0
  8 33  1  0
 12 34  1  0
 13 35  1  0
 15 36  1  0
 16 37  1  0
 16 38  1  0
 17 39  1  0
 17 40  1  0
 18 41  1  0
 18 42  1  0
 19 43  1  0
 19 44  1  0
 22 45  1  0
 24 46  1  0
 25 47  1  0
M  END
>  <Energy>  (10) 
999.32364027922927

>  <compound_id>  (10) 
28367

>  <target_id>  (10) 
1

>  <reference_id>  (10) 
96

>  <inspiration_ids>  (10) 
[122, 96]

>  <energy_score>  (10) 
908.7345793357161

>  <distance_score>  (10) 
10.75318814433467

>  <path>  (10) 
/opt/xchem-fragalysis-2/maxwin/BulkDock/SCRATCH/511025/C28367-P96/C28367-P96.minimised.mol

>  <scratch_subdir>  (10) 
/opt/xchem-fragalysis-2/maxwin/BulkDock/SCRATCH/511025/C28367-P96

>  <fragmenstein_runtime>  (10) 
42.96707057952881

>  <fragmenstein_outcome>  (10) 
too moved

>  <fragmenstein_mode>  (10) 
expansion

>  <fragmenstein_error>  (10) 


$$$$
C18699-P122
     RDKit          3D

 41 43  0  0  0  0  0  0  0  0999 V2000
    2.3909  -14.9439   20.6239 C   0  0  0  0  0  0  0  0  0  0  0  0
    2.2944  -14.5288   19.3647 N   0  0  0  0  0  0  0  0  0  0  0  0
    0.8874  -16.0374   19.3079 C   0  0  0  0  0  0  0  0  0  0  0  0
   -0.3135  -17.1242   20.2839 C   0  0  0  0  0  0  0  0  0  0  0  0
   -1.7752  -17.1189   19.9485 C   0  0  0  0  0  0  0  0  0  0  0  0
   -2.3402  -18.3039   20.3618 C   0  0  0  0  0  0  0  0  0  0  0  0
   -1.2936  -18.9945   20.8617 N   0  0  0  0  0  0  0  0  0  0  0  0
   -0.1073  -18.4362   20.5684 N   0  0  0  0  0  0  0  0  0  0  0  0
    3.8492  -14.4090   18.6467 C   0  0  0  0  0  0  0  0  0  0  0  0
    4.4188  -15.2455   18.0404 O   0  0  0  0  0  0  0  0  0  0  0  0
    4.4190  -12.7727   19.2071 N   0  0  0  0  0  0  0  0  0  0  0  0
    5.9099  -12.0491   19.1354 C   0  0  0  0  0  0  0  0  0  0  0  0
    6.8359  -11.8421   20.0765 C   0  0  0  0  0  0  0  0  0  0  0  0
    8.0956  -11.2007   19.6067 N   0  0  0  0  0  0  0  0  0  0  0  0
    8.2665   -9.7866   19.1580 N   0  0  0  0  0  0  0  0  0  0  0  0
    9.4029   -8.1904   19.8978 C   0  0  0  0  0  0  0  0  0  0  0  0
   10.8583   -8.3995   21.2103 C   0  0  0  0  0  0  0  0  0  0  0  0
   12.0977   -7.2775   21.2832 C   0  0  0  0  0  0  0  0  0  0  0  0
   11.7138   -5.8773   20.4446 C   0  0  0  0  0  0  0  0  0  0  0  0
    9.9059   -6.0695   19.8040 C   0  0  0  0  0  0  0  0  0  0  0  0
    6.5619  -10.6524   19.0350 C   0  0  0  0  0  0  0  0  0  0  0  0
    1.4277  -14.8815   20.9511 H   0  0  0  0  0  0  0  0  0  0  0  0
    2.8861  -14.7675   21.6387 H   0  0  0  0  0  0  0  0  0  0  0  0
    2.8535  -13.9352   20.7420 H   0  0  0  0  0  0  0  0  0  0  0  0
    1.1483  -17.0370   18.6729 H   0  0  0  0  0  0  0  0  0  0  0  0
   -0.1481  -15.5527   19.3067 H   0  0  0  0  0  0  0  0  0  0  0  0
   -2.2895  -16.3280   19.4321 H   0  0  0  0  0  0  0  0  0  0  0  0
   -3.3479  -18.6895   20.3401 H   0  0  0  0  0  0  0  0  0  0  0  0
   -1.2928  -19.9222   21.2712 H   0  0  0  0  0  0  0  0  0  0  0  0
    3.7544  -12.3401   19.7546 H   0  0  0  0  0  0  0  0  0  0  0  0
    6.9000  -12.5407   20.8971 H   0  0  0  0  0  0  0  0  0  0  0  0
   10.1435   -8.6388   19.3638 H   0  0  0  0  0  0  0  0  0  0  0  0
   10.5485   -8.5754   22.2404 H   0  0  0  0  0  0  0  0  0  0  0  0
   11.4328   -9.3141   21.0635 H   0  0  0  0  0  0  0  0  0  0  0  0
   13.1002   -7.6643   21.0737 H   0  0  0  0  0  0  0  0  0  0  0  0
   12.2999   -7.0718   22.3537 H   0  0  0  0  0  0  0  0  0  0  0  0
   12.4141   -5.6384   19.6367 H   0  0  0  0  0  0  0  0  0  0  0  0
   11.8335   -4.9684   21.0580 H   0  0  0  0  0  0  0  0  0  0  0  0
    9.3982   -5.1494   20.1098 H   0  0  0  0  0  0  0  0  0  0  0  0
   10.1390   -5.7581   18.8079 H   0  0  0  0  0  0  0  0  0  0  0  0
    5.7414  -10.0844   18.6230 H   0  0  0  0  0  0  0  0  0  0  0  0
  1  2  1  0
  2  3  1  0
  3  4  1  0
  4  5  1  0
  5  6  2  0
  6  7  1  0
  7  8  1  0
  2  9  1  0
  9 10  2  0
  9 11  1  0
 11 12  1  0
 12 13  1  0
 13 14  2  0
 14 15  1  0
 15 16  1  0
 16 17  1  0
 17 18  1  0
 18 19  1  0
 19 20  1  0
 15 21  1  0
  8  4  2  0
 21 12  2  0
 20 16  1  0
  1 22  1  0
  1 23  1  0
  1 24  1  0
  3 25  1  0
  3 26  1  0
  5 27  1  0
  6 28  1  0
  7 29  1  0
 11 30  1  0
 13 31  1  0
 16 32  1  0
 17 33  1  0
 17 34  1  0
 18 35  1  0
 18 36  1  0
 19 37  1  0
 19 38  1  0
 20 39  1  0
 20 40  1  0
 21 41  1  0
M  END
>  <Energy>  (11) 
1223.0562227452112

>  <compound_id>  (11) 
18699

>  <target_id>  (11) 
1

>  <reference_id>  (11) 
122

>  <inspiration_ids>  (11) 
[122, 96]

>  <energy_score>  (11) 
1194.1482012206975

>  <distance_score>  (11) 
13.14430235801652

>  <path>  (11) 
/opt/xchem-fragalysis-2/maxwin/BulkDock/SCRATCH/511025/C18699-P122/C18699-P122.minimised.mol

>  <scratch_subdir>  (11) 
/opt/xchem-fragalysis-2/maxwin/BulkDock/SCRATCH/511025/C18699-P122

>  <fragmenstein_runtime>  (11) 
24.97969698905945

>  <fragmenstein_outcome>  (11) 
too moved

>  <fragmenstein_mode>  (11) 
expansion

>  <fragmenstein_error>  (11) 


$$$$
C18699-P96
     RDKit          3D

 41 43  0  0  0  0  0  0  0  0999 V2000
   -6.7639  -17.9088   15.5378 C   0  0  0  0  0  0  0  0  0  0  0  0
   -6.3225  -16.6194   16.1661 N   0  0  0  0  0  0  0  0  0  0  0  0
   -7.3040  -17.0787   17.2750 C   0  0  0  0  0  0  0  0  0  0  0  0
   -6.9893  -18.1064   18.3740 C   0  0  0  0  0  0  0  0  0  0  0  0
   -5.9595  -18.1107   19.3537 C   0  0  0  0  0  0  0  0  0  0  0  0
   -6.2568  -19.1503   20.2086 C   0  0  0  0  0  0  0  0  0  0  0  0
   -7.3959  -19.7193   19.7229 N   0  0  0  0  0  0  0  0  0  0  0  0
   -7.8752  -19.0904   18.6314 N   0  0  0  0  0  0  0  0  0  0  0  0
   -6.4348  -15.4836   15.1609 C   0  0  0  0  0  0  0  0  0  0  0  0
   -7.3391  -14.7596   14.9516 O   0  0  0  0  0  0  0  0  0  0  0  0
   -5.0702  -15.5163   14.5617 N   0  0  0  0  0  0  0  0  0  0  0  0
   -4.4542  -14.6551   13.6634 C   0  0  0  0  0  0  0  0  0  0  0  0
   -4.8203  -13.3551   13.2387 C   0  0  0  0  0  0  0  0  0  0  0  0
   -4.0251  -12.8594   12.2773 N   0  0  0  0  0  0  0  0  0  0  0  0
   -3.1501  -13.8704   12.0458 N   0  0  0  0  0  0  0  0  0  0  0  0
   -2.4250  -13.8732   10.7912 C   0  0  0  0  0  0  0  0  0  0  0  0
   -1.4455  -12.7169   10.6006 C   0  0  0  0  0  0  0  0  0  0  0  0
   -0.6895  -13.1174    9.3431 C   0  0  0  0  0  0  0  0  0  0  0  0
   -0.5417  -14.6334    9.4390 C   0  0  0  0  0  0  0  0  0  0  0  0
   -1.5692  -15.1042   10.4708 C   0  0  0  0  0  0  0  0  0  0  0  0
   -3.3216  -14.9142   12.9215 C   0  0  0  0  0  0  0  0  0  0  0  0
   -6.1954  -17.9825   14.5988 H   0  0  0  0  0  0  0  0  0  0  0  0
   -6.4617  -18.8142   16.0788 H   0  0  0  0  0  0  0  0  0  0  0  0
   -7.8071  -17.9103   15.1879 H   0  0  0  0  0  0  0  0  0  0  0  0
   -8.3497  -17.1474   16.9247 H   0  0  0  0  0  0  0  0  0  0  0  0
   -7.3714  -16.1422   17.8552 H   0  0  0  0  0  0  0  0  0  0  0  0
   -5.1295  -17.4220   19.4329 H   0  0  0  0  0  0  0  0  0  0  0  0
   -5.7636  -19.5359   21.0891 H   0  0  0  0  0  0  0  0  0  0  0  0
   -7.8968  -20.5315   20.0745 H   0  0  0  0  0  0  0  0  0  0  0  0
   -4.5697  -16.3267   14.9131 H   0  0  0  0  0  0  0  0  0  0  0  0
   -5.6596  -12.7640   13.5818 H   0  0  0  0  0  0  0  0  0  0  0  0
   -3.2015  -13.8005   10.0147 H   0  0  0  0  0  0  0  0  0  0  0  0
   -1.9472  -11.7508   10.4878 H   0  0  0  0  0  0  0  0  0  0  0  0
   -0.7465  -12.6399   11.4371 H   0  0  0  0  0  0  0  0  0  0  0  0
    0.2772  -12.6116    9.2614 H   0  0  0  0  0  0  0  0  0  0  0  0
   -1.2783  -12.8590    8.4548 H   0  0  0  0  0  0  0  0  0  0  0  0
   -0.7084  -15.1026    8.4636 H   0  0  0  0  0  0  0  0  0  0  0  0
    0.4689  -14.9054    9.7639 H   0  0  0  0  0  0  0  0  0  0  0  0
   -2.1786  -15.9288   10.0854 H   0  0  0  0  0  0  0  0  0  0  0  0
   -1.0430  -15.4790   11.3536 H   0  0  0  0  0  0  0  0  0  0  0  0
   -2.7125  -15.8004   12.8616 H   0  0  0  0  0  0  0  0  0  0  0  0
  1  2  1  0
  2  3  1  0
  3  4  1  0
  4  5  1  0
  5  6  2  0
  6  7  1  0
  7  8  1  0
  2  9  1  0
  9 10  2  0
  9 11  1  0
 11 12  1  0
 12 13  1  0
 13 14  2  0
 14 15  1  0
 15 16  1  0
 16 17  1  0
 17 18  1  0
 18 19  1  0
 19 20  1  0
 15 21  1  0
  8  4  2  0
 21 12  2  0
 20 16  1  0
  1 22  1  0
  1 23  1  0
  1 24  1  0
  3 25  1  0
  3 26  1  0
  5 27  1  0
  6 28  1  0
  7 29  1  0
 11 30  1  0
 13 31  1  0
 16 32  1  0
 17 33  1  0
 17 34  1  0
 18 35  1  0
 18 36  1  0
 19 37  1  0
 19 38  1  0
 20 39  1  0
 20 40  1  0
 21 41  1  0
M  END
>  <Energy>  (12) 
62.50025905174008

>  <compound_id>  (12) 
18699

>  <target_id>  (12) 
1

>  <reference_id>  (12) 
96

>  <inspiration_ids>  (12) 
[122, 96]

>  <energy_score>  (12) 
33.59223752722119

>  <distance_score>  (12) 
16.303760299344145

>  <path>  (12) 
/opt/xchem-fragalysis-2/maxwin/BulkDock/SCRATCH/511025/C18699-P96/C18699-P96.minimised.mol

>  <scratch_subdir>  (12) 
/opt/xchem-fragalysis-2/maxwin/BulkDock/SCRATCH/511025/C18699-P96

>  <fragmenstein_runtime>  (12) 
24.44471502304077

>  <fragmenstein_outcome>  (12) 
too moved

>  <fragmenstein_mode>  (12) 
expansion

>  <fragmenstein_error>  (12) 


$$$$
C28368-P122
     RDKit          3D

 50 52  0  0  0  0  0  0  0  0999 V2000
    4.3629  -14.7977   18.3792 C   0  0  0  0  0  0  0  0  0  0  0  0
    4.2502  -13.3125   19.6505 C   0  0  0  0  0  0  0  0  0  0  0  0
    2.5624  -14.5623   19.6667 C   0  0  0  0  0  0  0  0  0  0  0  0
    1.3043  -15.6062   20.6994 N   0  0  0  0  0  0  0  0  0  0  0  0
   -0.1533  -16.7205   20.5454 C   0  0  0  0  0  0  0  0  0  0  0  0
   -1.0810  -18.1398   21.3386 C   0  0  0  0  0  0  0  0  0  0  0  0
   -0.8588  -19.3423   22.4800 C   0  0  0  0  0  0  0  0  0  0  0  0
   -1.8094  -20.2885   22.2504 C   0  0  0  0  0  0  0  0  0  0  0  0
   -2.8129  -19.5494   21.7298 N   0  0  0  0  0  0  0  0  0  0  0  0
   -4.0720  -19.5802   22.4682 C   0  0  0  0  0  0  0  0  0  0  0  0
   -3.8795  -19.7989   24.0096 C   0  0  0  0  0  0  0  0  0  0  0  0
   -3.8627  -21.3111   24.2575 C   0  0  0  0  0  0  0  0  0  0  0  0
   -4.3882  -21.9469   22.9772 C   0  0  0  0  0  0  0  0  0  0  0  0
   -4.8786  -20.7871   22.1045 C   0  0  0  0  0  0  0  0  0  0  0  0
   -2.4073  -18.4493   20.9508 N   0  0  0  0  0  0  0  0  0  0  0  0
    5.2752  -12.1774   18.6472 N   0  0  0  0  0  0  0  0  0  0  0  0
    3.7943  -12.3666   18.0371 C   0  0  0  0  0  0  0  0  0  0  0  0
    6.1239  -10.8548   19.0558 C   0  0  0  0  0  0  0  0  0  0  0  0
    5.5290   -9.8746   18.9791 O   0  0  0  0  0  0  0  0  0  0  0  0
    7.8737  -10.4712   19.4387 C   0  0  0  0  0  0  0  0  0  0  0  0
    9.2733   -9.0596   19.4842 C   0  0  0  0  0  0  0  0  0  0  0  0
    9.2189   -7.8664   19.8716 N   0  0  0  0  0  0  0  0  0  0  0  0
    7.5201   -7.8793   19.3958 N   0  0  0  0  0  0  0  0  0  0  0  0
    8.4090   -9.4527   18.6758 C   0  0  0  0  0  0  0  0  0  0  0  0
    3.4321  -15.0561   17.8728 H   0  0  0  0  0  0  0  0  0  0  0  0
    4.6774  -15.7662   18.7655 H   0  0  0  0  0  0  0  0  0  0  0  0
    4.9469  -14.7769   17.5414 H   0  0  0  0  0  0  0  0  0  0  0  0
    4.9657  -13.4081   20.4752 H   0  0  0  0  0  0  0  0  0  0  0  0
    2.0975  -14.3861   18.6810 H   0  0  0  0  0  0  0  0  0  0  0  0
    2.5818  -14.0891   20.6092 H   0  0  0  0  0  0  0  0  0  0  0  0
    0.9892  -14.9476   21.4215 H   0  0  0  0  0  0  0  0  0  0  0  0
    0.3765  -17.2158   19.7962 H   0  0  0  0  0  0  0  0  0  0  0  0
   -0.9920  -16.1756   20.0932 H   0  0  0  0  0  0  0  0  0  0  0  0
    0.0485  -19.6166   22.9917 H   0  0  0  0  0  0  0  0  0  0  0  0
   -1.8705  -21.3117   22.5768 H   0  0  0  0  0  0  0  0  0  0  0  0
   -4.6033  -18.6469   22.2502 H   0  0  0  0  0  0  0  0  0  0  0  0
   -2.9752  -19.3737   24.4512 H   0  0  0  0  0  0  0  0  0  0  0  0
   -4.6933  -19.3111   24.5410 H   0  0  0  0  0  0  0  0  0  0  0  0
   -2.8506  -21.6686   24.4771 H   0  0  0  0  0  0  0  0  0  0  0  0
   -4.4457  -21.5823   25.1391 H   0  0  0  0  0  0  0  0  0  0  0  0
   -3.5990  -22.5050   22.4628 H   0  0  0  0  0  0  0  0  0  0  0  0
   -5.1643  -22.6853   23.1863 H   0  0  0  0  0  0  0  0  0  0  0  0
   -5.9014  -20.5263   22.3802 H   0  0  0  0  0  0  0  0  0  0  0  0
   -4.8188  -21.0181   21.0372 H   0  0  0  0  0  0  0  0  0  0  0  0
    3.2374  -13.2390   18.0521 H   0  0  0  0  0  0  0  0  0  0  0  0
    4.0217  -12.1048   16.9968 H   0  0  0  0  0  0  0  0  0  0  0  0
    3.1343  -11.5264   17.8163 H   0  0  0  0  0  0  0  0  0  0  0  0
   10.3900   -9.2337   19.6348 H   0  0  0  0  0  0  0  0  0  0  0  0
    7.0785   -7.1752   18.8017 H   0  0  0  0  0  0  0  0  0  0  0  0
    8.6090   -9.7027   17.6054 H   0  0  0  0  0  0  0  0  0  0  0  0
  1  2  1  0
  2  3  1  0
  3  4  1  0
  4  5  1  0
  5  6  1  0
  6  7  1  0
  7  8  2  0
  8  9  1  0
  9 10  1  0
 10 11  1  0
 11 12  1  0
 12 13  1  0
 13 14  1  0
  9 15  1  0
  2 16  1  0
 16 17  1  0
 16 18  1  0
 18 19  2  0
 18 20  1  0
 20 21  1  0
 21 22  2  0
 22 23  1  0
 23 24  1  0
 15  6  2  0
 24 20  2  0
 14 10  1  0
  1 25  1  0
  1 26  1  0
  1 27  1  0
  2 28  1  0
  3 29  1  0
  3 30  1  0
  4 31  1  0
  5 32  1  0
  5 33  1  0
  7 34  1  0
  8 35  1  0
 10 36  1  0
 11 37  1  0
 11 38  1  0
 12 39  1  0
 12 40  1  0
 13 41  1  0
 13 42  1  0
 14 43  1  0
 14 44  1  0
 17 45  1  0
 17 46  1  0
 17 47  1  0
 21 48  1  0
 23 49  1  0
 24 50  1  0
M  END
>  <Energy>  (13) 
1282.6128927733316

>  <compound_id>  (13) 
28368

>  <target_id>  (13) 
1

>  <reference_id>  (13) 
122

>  <inspiration_ids>  (13) 
[122, 96]

>  <energy_score>  (13) 
1182.278809252673

>  <distance_score>  (13) 
11.006379953624107

>  <path>  (13) 
/opt/xchem-fragalysis-2/maxwin/BulkDock/SCRATCH/511025/C28368-P122/C28368-P122.minimised.mol

>  <scratch_subdir>  (13) 
/opt/xchem-fragalysis-2/maxwin/BulkDock/SCRATCH/511025/C28368-P122

>  <fragmenstein_runtime>  (13) 
37.43088912963867

>  <fragmenstein_outcome>  (13) 
too moved

>  <fragmenstein_mode>  (13) 
expansion

>  <fragmenstein_error>  (13) 


$$$$
C28368-P96
     RDKit          3D

 50 52  0  0  0  0  0  0  0  0999 V2000
    0.3695  -13.4821   16.1833 C   0  0  0  0  0  0  0  0  0  0  0  0
    1.3194  -14.0201   17.3331 C   0  0  0  0  0  0  0  0  0  0  0  0
    0.0159  -15.1753   18.5198 C   0  0  0  0  0  0  0  0  0  0  0  0
   -1.7952  -15.4060   18.7363 N   0  0  0  0  0  0  0  0  0  0  0  0
   -2.2476  -16.8794   18.8893 C   0  0  0  0  0  0  0  0  0  0  0  0
   -3.6423  -17.2242   19.5069 C   0  0  0  0  0  0  0  0  0  0  0  0
   -3.9931  -18.4482   20.1754 C   0  0  0  0  0  0  0  0  0  0  0  0
   -5.2370  -18.2461   20.7247 C   0  0  0  0  0  0  0  0  0  0  0  0
   -5.6164  -17.0054   20.3098 N   0  0  0  0  0  0  0  0  0  0  0  0
   -6.8542  -16.3239   20.6528 C   0  0  0  0  0  0  0  0  0  0  0  0
   -7.5770  -15.7110   19.4426 C   0  0  0  0  0  0  0  0  0  0  0  0
   -7.3238  -14.2139   19.5546 C   0  0  0  0  0  0  0  0  0  0  0  0
   -7.3611  -13.9698   21.0531 C   0  0  0  0  0  0  0  0  0  0  0  0
   -6.6215  -15.1661   21.6404 C   0  0  0  0  0  0  0  0  0  0  0  0
   -4.6958  -16.3892   19.5382 N   0  0  0  0  0  0  0  0  0  0  0  0
    2.7743  -13.0962   16.6003 N   0  0  0  0  0  0  0  0  0  0  0  0
    2.7496  -14.3270   16.1541 C   0  0  0  0  0  0  0  0  0  0  0  0
    3.8074  -12.3845   17.2530 C   0  0  0  0  0  0  0  0  0  0  0  0
    4.8498  -12.7431   17.6283 O   0  0  0  0  0  0  0  0  0  0  0  0
    3.7117  -11.0869   17.4212 C   0  0  0  0  0  0  0  0  0  0  0  0
    4.6349  -10.1795   16.8544 C   0  0  0  0  0  0  0  0  0  0  0  0
    5.6049   -9.8659   17.6017 N   0  0  0  0  0  0  0  0  0  0  0  0
    5.2278  -10.5707   18.6161 N   0  0  0  0  0  0  0  0  0  0  0  0
    3.9019  -10.6635   18.6785 C   0  0  0  0  0  0  0  0  0  0  0  0
   -0.6270  -13.0605   16.2948 H   0  0  0  0  0  0  0  0  0  0  0  0
    0.4045  -13.8521   15.1795 H   0  0  0  0  0  0  0  0  0  0  0  0
    0.9896  -12.6981   16.3034 H   0  0  0  0  0  0  0  0  0  0  0  0
    1.5124  -13.4319   18.2482 H   0  0  0  0  0  0  0  0  0  0  0  0
    0.1299  -16.2504   18.3968 H   0  0  0  0  0  0  0  0  0  0  0  0
    0.1483  -14.9037   19.5327 H   0  0  0  0  0  0  0  0  0  0  0  0
   -2.0222  -15.0594   19.6794 H   0  0  0  0  0  0  0  0  0  0  0  0
   -1.5075  -17.2552   19.5775 H   0  0  0  0  0  0  0  0  0  0  0  0
   -2.1852  -17.4037   17.9322 H   0  0  0  0  0  0  0  0  0  0  0  0
   -3.3924  -19.3382   20.2828 H   0  0  0  0  0  0  0  0  0  0  0  0
   -5.8635  -18.8642   21.3487 H   0  0  0  0  0  0  0  0  0  0  0  0
   -7.5060  -17.0795   21.1095 H   0  0  0  0  0  0  0  0  0  0  0  0
   -7.2544  -16.1131   18.4771 H   0  0  0  0  0  0  0  0  0  0  0  0
   -8.6544  -15.8987   19.5338 H   0  0  0  0  0  0  0  0  0  0  0  0
   -6.3368  -13.9598   19.1512 H   0  0  0  0  0  0  0  0  0  0  0  0
   -8.0746  -13.6257   19.0192 H   0  0  0  0  0  0  0  0  0  0  0  0
   -8.3985  -13.9600   21.4082 H   0  0  0  0  0  0  0  0  0  0  0  0
   -6.8981  -13.0190   21.3325 H   0  0  0  0  0  0  0  0  0  0  0  0
   -6.9999  -15.4095   22.6391 H   0  0  0  0  0  0  0  0  0  0  0  0
   -5.5569  -14.9268   21.7496 H   0  0  0  0  0  0  0  0  0  0  0  0
    3.1733  -14.7900   17.0080 H   0  0  0  0  0  0  0  0  0  0  0  0
    1.9782  -14.7360   15.5025 H   0  0  0  0  0  0  0  0  0  0  0  0
    3.6544  -14.4008   15.5572 H   0  0  0  0  0  0  0  0  0  0  0  0
    4.6182   -9.3747   16.1925 H   0  0  0  0  0  0  0  0  0  0  0  0
    5.9103  -11.2492   18.8577 H   0  0  0  0  0  0  0  0  0  0  0  0
    3.1920  -10.9036   19.4491 H   0  0  0  0  0  0  0  0  0  0  0  0
  1  2  1  0
  2  3  1  0
  3  4  1  0
  4  5  1  0
  5  6  1  0
  6  7  1  0
  7  8  2  0
  8  9  1  0
  9 10  1  0
 10 11  1  0
 11 12  1  0
 12 13  1  0
 13 14  1  0
  9 15  1  0
  2 16  1  0
 16 17  1  0
 16 18  1  0
 18 19  2  0
 18 20  1  0
 20 21  1  0
 21 22  2  0
 22 23  1  0
 23 24  1  0
 15  6  2  0
 24 20  2  0
 14 10  1  0
  1 25  1  0
  1 26  1  0
  1 27  1  0
  2 28  1  0
  3 29  1  0
  3 30  1  0
  4 31  1  0
  5 32  1  0
  5 33  1  0
  7 34  1  0
  8 35  1  0
 10 36  1  0
 11 37  1  0
 11 38  1  0
 12 39  1  0
 12 40  1  0
 13 41  1  0
 13 42  1  0
 14 43  1  0
 14 44  1  0
 17 45  1  0
 17 46  1  0
 17 47  1  0
 21 48  1  0
 23 49  1  0
 24 50  1  0
M  END
>  <Energy>  (14) 
609.39718498065702

>  <compound_id>  (14) 
28368

>  <target_id>  (14) 
1

>  <reference_id>  (14) 
96

>  <inspiration_ids>  (14) 
[122, 96]

>  <energy_score>  (14) 
509.0631014599891

>  <distance_score>  (14) 
12.284499814342897

>  <path>  (14) 
/opt/xchem-fragalysis-2/maxwin/BulkDock/SCRATCH/511025/C28368-P96/C28368-P96.minimised.mol

>  <scratch_subdir>  (14) 
/opt/xchem-fragalysis-2/maxwin/BulkDock/SCRATCH/511025/C28368-P96

>  <fragmenstein_runtime>  (14) 
38.56853127479553

>  <fragmenstein_outcome>  (14) 
too moved

>  <fragmenstein_mode>  (14) 
expansion

>  <fragmenstein_error>  (14) 


$$$$
C18700-P122
     RDKit          3D

 50 52  0  0  0  0  0  0  0  0999 V2000
    0.1971   -8.5390   19.5768 C   0  0  0  0  0  0  0  0  0  0  0  0
   -0.9678   -8.9988   18.2619 C   0  0  0  0  0  0  0  0  0  0  0  0
   -2.4630  -10.1389   18.9503 C   0  0  0  0  0  0  0  0  0  0  0  0
   -2.9812  -11.0455   20.4383 N   0  0  0  0  0  0  0  0  0  0  0  0
   -4.7367  -11.6403   20.7128 C   0  0  0  0  0  0  0  0  0  0  0  0
   -6.2313  -12.2186   21.9956 C   0  0  0  0  0  0  0  0  0  0  0  0
   -7.7044  -12.3258   21.5257 C   0  0  0  0  0  0  0  0  0  0  0  0
   -8.4666  -12.4239   22.6719 C   0  0  0  0  0  0  0  0  0  0  0  0
   -7.5851  -12.4500   23.7149 N   0  0  0  0  0  0  0  0  0  0  0  0
   -7.8872  -12.3444   25.1265 C   0  0  0  0  0  0  0  0  0  0  0  0
   -9.2882  -12.7912   25.5452 C   0  0  0  0  0  0  0  0  0  0  0  0
   -9.1619  -12.8914   27.0548 C   0  0  0  0  0  0  0  0  0  0  0  0
   -7.7913  -13.5203   27.2700 C   0  0  0  0  0  0  0  0  0  0  0  0
   -6.9657  -13.1750   26.0327 C   0  0  0  0  0  0  0  0  0  0  0  0
   -6.2892  -12.4651   23.3471 N   0  0  0  0  0  0  0  0  0  0  0  0
   -0.1996   -7.7289   16.8856 N   0  0  0  0  0  0  0  0  0  0  0  0
   -0.9908   -8.7835   17.4664 C   0  0  0  0  0  0  0  0  0  0  0  0
   -0.3482   -7.3319   14.9688 C   0  0  0  0  0  0  0  0  0  0  0  0
   -0.9303   -7.8509   14.0951 O   0  0  0  0  0  0  0  0  0  0  0  0
    0.4204   -5.7700   14.3481 C   0  0  0  0  0  0  0  0  0  0  0  0
    1.8288   -5.1234   14.2304 C   0  0  0  0  0  0  0  0  0  0  0  0
    1.7484   -4.1407   13.2777 C   0  0  0  0  0  0  0  0  0  0  0  0
    0.4621   -4.1789   12.8493 N   0  0  0  0  0  0  0  0  0  0  0  0
   -0.3431   -5.0731   13.4544 N   0  0  0  0  0  0  0  0  0  0  0  0
   -0.0945   -8.9488   20.5555 H   0  0  0  0  0  0  0  0  0  0  0  0
    0.2898   -7.5159   19.7001 H   0  0  0  0  0  0  0  0  0  0  0  0
    1.2107   -8.7746   19.2222 H   0  0  0  0  0  0  0  0  0  0  0  0
   -1.6211   -8.2682   19.0020 H   0  0  0  0  0  0  0  0  0  0  0  0
   -3.1968   -9.3571   19.0313 H   0  0  0  0  0  0  0  0  0  0  0  0
   -2.7141  -10.8577   18.1652 H   0  0  0  0  0  0  0  0  0  0  0  0
   -2.4942  -11.9340   20.3080 H   0  0  0  0  0  0  0  0  0  0  0  0
   -4.7436  -10.7066   21.1616 H   0  0  0  0  0  0  0  0  0  0  0  0
   -4.8217  -12.0601   19.7128 H   0  0  0  0  0  0  0  0  0  0  0  0
   -8.0425  -12.1979   20.5057 H   0  0  0  0  0  0  0  0  0  0  0  0
   -9.5366  -12.4259   22.8178 H   0  0  0  0  0  0  0  0  0  0  0  0
   -7.7648  -11.2808   25.3749 H   0  0  0  0  0  0  0  0  0  0  0  0
   -9.5405  -13.7693   25.1166 H   0  0  0  0  0  0  0  0  0  0  0  0
  -10.0630  -12.0770   25.2494 H   0  0  0  0  0  0  0  0  0  0  0  0
   -9.9718  -13.4736   27.5011 H   0  0  0  0  0  0  0  0  0  0  0  0
   -9.1851  -11.8897   27.5006 H   0  0  0  0  0  0  0  0  0  0  0  0
   -7.8741  -14.6093   27.3479 H   0  0  0  0  0  0  0  0  0  0  0  0
   -7.3238  -13.1572   28.1905 H   0  0  0  0  0  0  0  0  0  0  0  0
   -6.0637  -12.6129   26.2995 H   0  0  0  0  0  0  0  0  0  0  0  0
   -6.6376  -14.1005   25.5429 H   0  0  0  0  0  0  0  0  0  0  0  0
   -0.6240   -8.9963   16.3865 H   0  0  0  0  0  0  0  0  0  0  0  0
   -2.2156   -8.1617   17.4625 H   0  0  0  0  0  0  0  0  0  0  0  0
   -1.8343   -9.5533   16.9319 H   0  0  0  0  0  0  0  0  0  0  0  0
    2.7236   -5.3972   14.7733 H   0  0  0  0  0  0  0  0  0  0  0  0
    2.4755   -3.4565   12.8653 H   0  0  0  0  0  0  0  0  0  0  0  0
    0.0462   -3.6114   12.1196 H   0  0  0  0  0  0  0  0  0  0  0  0
  1  2  1  0
  2  3  1  0
  3  4  1  0
  4  5  1  0
  5  6  1  0
  6  7  1  0
  7  8  2  0
  8  9  1  0
  9 10  1  0
 10 11  1  0
 11 12  1  0
 12 13  1  0
 13 14  1  0
  9 15  1  0
  2 16  1  0
 16 17  1  0
 16 18  1  0
 18 19  2  0
 18 20  1  0
 20 21  1  0
 21 22  2  0
 22 23  1  0
 23 24  1  0
 15  6  2  0
 24 20  2  0
 14 10  1  0
  1 25  1  0
  1 26  1  0
  1 27  1  0
  2 28  1  0
  3 29  1  0
  3 30  1  0
  4 31  1  0
  5 32  1  0
  5 33  1  0
  7 34  1  0
  8 35  1  0
 10 36  1  0
 11 37  1  0
 11 38  1  0
 12 39  1  0
 12 40  1  0
 13 41  1  0
 13 42  1  0
 14 43  1  0
 14 44  1  0
 17 45  1  0
 17 46  1  0
 17 47  1  0
 21 48  1  0
 22 49  1  0
 23 50  1  0
M  END
>  <Energy>  (15) 
1326.7054858111965

>  <compound_id>  (15) 
18700

>  <target_id>  (15) 
1

>  <reference_id>  (15) 
122

>  <inspiration_ids>  (15) 
[122, 96]

>  <energy_score>  (15) 
1170.0897913272152

>  <distance_score>  (15) 
13.314315854651785

>  <path>  (15) 
/opt/xchem-fragalysis-2/maxwin/BulkDock/SCRATCH/511025/C18700-P122/C18700-P122.minimised.mol

>  <scratch_subdir>  (15) 
/opt/xchem-fragalysis-2/maxwin/BulkDock/SCRATCH/511025/C18700-P122

>  <fragmenstein_runtime>  (15) 
43.17292833328247

>  <fragmenstein_outcome>  (15) 
too moved

>  <fragmenstein_mode>  (15) 
expansion

>  <fragmenstein_error>  (15) 


$$$$
C18700-P96
     RDKit          3D

 50 52  0  0  0  0  0  0  0  0999 V2000
   -5.1898   -9.3760   18.8471 C   0  0  0  0  0  0  0  0  0  0  0  0
   -3.5159   -9.6306   18.6060 C   0  0  0  0  0  0  0  0  0  0  0  0
   -3.3055  -11.5094   18.3282 C   0  0  0  0  0  0  0  0  0  0  0  0
   -2.8221  -13.0035   19.1699 N   0  0  0  0  0  0  0  0  0  0  0  0
   -2.6471  -14.6862   18.4413 C   0  0  0  0  0  0  0  0  0  0  0  0
   -3.2910  -16.1657   18.5646 C   0  0  0  0  0  0  0  0  0  0  0  0
   -2.4887  -17.2935   18.8721 C   0  0  0  0  0  0  0  0  0  0  0  0
   -3.1819  -18.4364   18.5275 C   0  0  0  0  0  0  0  0  0  0  0  0
   -4.3657  -17.9864   18.0591 N   0  0  0  0  0  0  0  0  0  0  0  0
   -5.4794  -18.7652   17.5480 C   0  0  0  0  0  0  0  0  0  0  0  0
   -5.9318  -19.8940   18.4910 C   0  0  0  0  0  0  0  0  0  0  0  0
   -5.5710  -21.1861   17.7700 C   0  0  0  0  0  0  0  0  0  0  0  0
   -5.7546  -20.8334   16.3042 C   0  0  0  0  0  0  0  0  0  0  0  0
   -5.1642  -19.4341   16.2000 C   0  0  0  0  0  0  0  0  0  0  0  0
   -4.3104  -16.6670   17.8242 N   0  0  0  0  0  0  0  0  0  0  0  0
   -2.7906   -8.3490   19.9571 N   0  0  0  0  0  0  0  0  0  0  0  0
   -2.8892   -9.2566   19.0332 C   0  0  0  0  0  0  0  0  0  0  0  0
   -1.5267   -7.2556   20.0043 C   0  0  0  0  0  0  0  0  0  0  0  0
   -0.6679   -7.0356   19.2675 O   0  0  0  0  0  0  0  0  0  0  0  0
   -1.4712   -6.2662   21.2852 C   0  0  0  0  0  0  0  0  0  0  0  0
   -2.4795   -5.8724   22.2237 C   0  0  0  0  0  0  0  0  0  0  0  0
   -1.9009   -4.9349   23.0498 C   0  0  0  0  0  0  0  0  0  0  0  0
   -0.6309   -4.7844   22.6080 N   0  0  0  0  0  0  0  0  0  0  0  0
   -0.3475   -5.5682   21.5793 N   0  0  0  0  0  0  0  0  0  0  0  0
   -5.4577   -8.4441   18.3337 H   0  0  0  0  0  0  0  0  0  0  0  0
   -5.4064   -9.2195   19.9050 H   0  0  0  0  0  0  0  0  0  0  0  0
   -5.7823  -10.1902   18.4267 H   0  0  0  0  0  0  0  0  0  0  0  0
   -3.5926   -9.2782   17.4049 H   0  0  0  0  0  0  0  0  0  0  0  0
   -2.8607  -11.5573   17.3264 H   0  0  0  0  0  0  0  0  0  0  0  0
   -4.3683  -11.6728   18.1548 H   0  0  0  0  0  0  0  0  0  0  0  0
   -3.6458  -13.1846   19.6604 H   0  0  0  0  0  0  0  0  0  0  0  0
   -2.5714  -14.4471   17.3885 H   0  0  0  0  0  0  0  0  0  0  0  0
   -1.6854  -15.0472   18.7978 H   0  0  0  0  0  0  0  0  0  0  0  0
   -1.4873  -17.2113   19.2621 H   0  0  0  0  0  0  0  0  0  0  0  0
   -2.9345  -19.4866   18.5853 H   0  0  0  0  0  0  0  0  0  0  0  0
   -6.3157  -18.0652   17.4281 H   0  0  0  0  0  0  0  0  0  0  0  0
   -7.0216  -19.8449   18.6114 H   0  0  0  0  0  0  0  0  0  0  0  0
   -5.4928  -19.8482   19.4925 H   0  0  0  0  0  0  0  0  0  0  0  0
   -6.2034  -22.0232   18.0792 H   0  0  0  0  0  0  0  0  0  0  0  0
   -4.5267  -21.4537   17.9689 H   0  0  0  0  0  0  0  0  0  0  0  0
   -6.8208  -20.8133   16.0492 H   0  0  0  0  0  0  0  0  0  0  0  0
   -5.2570  -21.5441   15.6383 H   0  0  0  0  0  0  0  0  0  0  0  0
   -4.0842  -19.5021   16.0210 H   0  0  0  0  0  0  0  0  0  0  0  0
   -5.5963  -18.8777   15.3617 H   0  0  0  0  0  0  0  0  0  0  0  0
   -2.3607  -10.0230   19.8011 H   0  0  0  0  0  0  0  0  0  0  0  0
   -1.7110   -9.3981   18.8898 H   0  0  0  0  0  0  0  0  0  0  0  0
   -2.4467   -8.3312   18.2498 H   0  0  0  0  0  0  0  0  0  0  0  0
   -3.5033   -6.2193   22.2540 H   0  0  0  0  0  0  0  0  0  0  0  0
   -2.2899   -4.3643   23.8805 H   0  0  0  0  0  0  0  0  0  0  0  0
    0.0938   -4.1675   22.9598 H   0  0  0  0  0  0  0  0  0  0  0  0
  1  2  1  0
  2  3  1  0
  3  4  1  0
  4  5  1  0
  5  6  1  0
  6  7  1  0
  7  8  2  0
  8  9  1  0
  9 10  1  0
 10 11  1  0
 11 12  1  0
 12 13  1  0
 13 14  1  0
  9 15  1  0
  2 16  1  0
 16 17  1  0
 16 18  1  0
 18 19  2  0
 18 20  1  0
 20 21  1  0
 21 22  2  0
 22 23  1  0
 23 24  1  0
 15  6  2  0
 24 20  2  0
 14 10  1  0
  1 25  1  0
  1 26  1  0
  1 27  1  0
  2 28  1  0
  3 29  1  0
  3 30  1  0
  4 31  1  0
  5 32  1  0
  5 33  1  0
  7 34  1  0
  8 35  1  0
 10 36  1  0
 11 37  1  0
 11 38  1  0
 12 39  1  0
 12 40  1  0
 13 41  1  0
 13 42  1  0
 14 43  1  0
 14 44  1  0
 17 45  1  0
 17 46  1  0
 17 47  1  0
 21 48  1  0
 22 49  1  0
 23 50  1  0
M  END
>  <Energy>  (16) 
1041.7370614800952

>  <compound_id>  (16) 
18700

>  <target_id>  (16) 
1

>  <reference_id>  (16) 
96

>  <inspiration_ids>  (16) 
[122, 96]

>  <energy_score>  (16) 
885.121366996118

>  <distance_score>  (16) 
15.12842758323618

>  <path>  (16) 
/opt/xchem-fragalysis-2/maxwin/BulkDock/SCRATCH/511025/C18700-P96/C18700-P96.minimised.mol

>  <scratch_subdir>  (16) 
/opt/xchem-fragalysis-2/maxwin/BulkDock/SCRATCH/511025/C18700-P96

>  <fragmenstein_runtime>  (16) 
51.27408742904663

>  <fragmenstein_outcome>  (16) 
too moved

>  <fragmenstein_mode>  (16) 
expansion

>  <fragmenstein_error>  (16) 


$$$$
C28369-P122
     RDKit          3D

 47 49  0  0  0  0  0  0  0  0999 V2000
    8.3889  -10.5345   18.2275 O   0  0  0  0  0  0  0  0  0  0  0  0
    8.0515  -10.2758   19.3712 C   0  0  0  0  0  0  0  0  0  0  0  0
    6.4705  -11.2085   20.0931 N   0  0  0  0  0  0  0  0  0  0  0  0
    5.2985  -12.6794   19.3642 C   0  0  0  0  0  0  0  0  0  0  0  0
    3.6148  -13.9503   19.0368 C   0  0  0  0  0  0  0  0  0  0  0  0
    3.4054  -14.9455   18.0228 C   0  0  0  0  0  0  0  0  0  0  0  0
    4.6230  -15.3454   17.6425 O   0  0  0  0  0  0  0  0  0  0  0  0
    2.1405  -14.7512   20.2338 N   0  0  0  0  0  0  0  0  0  0  0  0
    0.8375  -16.2389   19.9576 C   0  0  0  0  0  0  0  0  0  0  0  0
    0.9530  -16.8995   18.9414 O   0  0  0  0  0  0  0  0  0  0  0  0
   -0.5394  -16.7416   20.7587 C   0  0  0  0  0  0  0  0  0  0  0  0
   -0.4976  -17.9652   21.4298 C   0  0  0  0  0  0  0  0  0  0  0  0
   -1.6957  -18.8283   21.6049 C   0  0  0  0  0  0  0  0  0  0  0  0
   -2.6660  -18.2327   21.0020 N   0  0  0  0  0  0  0  0  0  0  0  0
   -2.0247  -17.3090   20.1813 N   0  0  0  0  0  0  0  0  0  0  0  0
   -2.8770  -17.2927   18.9898 C   0  0  0  0  0  0  0  0  0  0  0  0
   -3.0833  -18.6664   18.2497 C   0  0  0  0  0  0  0  0  0  0  0  0
   -4.1160  -19.5104   18.9910 C   0  0  0  0  0  0  0  0  0  0  0  0
   -5.0558  -18.4831   19.5948 C   0  0  0  0  0  0  0  0  0  0  0  0
   -4.4039  -17.1124   19.3312 C   0  0  0  0  0  0  0  0  0  0  0  0
    9.5003   -8.9835   20.2548 C   0  0  0  0  0  0  0  0  0  0  0  0
   10.1447   -7.9035   20.4684 C   0  0  0  0  0  0  0  0  0  0  0  0
   11.1966   -7.2172   21.1229 N   0  0  0  0  0  0  0  0  0  0  0  0
   11.5758   -8.1297   21.8986 N   0  0  0  0  0  0  0  0  0  0  0  0
   10.3915   -8.7764   21.8865 C   0  0  0  0  0  0  0  0  0  0  0  0
    6.2647  -10.8395   20.9968 H   0  0  0  0  0  0  0  0  0  0  0  0
    4.7708  -12.5059   20.3160 H   0  0  0  0  0  0  0  0  0  0  0  0
    5.9066  -13.4893   19.7020 H   0  0  0  0  0  0  0  0  0  0  0  0
    3.2876  -13.2034   18.3004 H   0  0  0  0  0  0  0  0  0  0  0  0
    3.0138  -15.7569   18.4995 H   0  0  0  0  0  0  0  0  0  0  0  0
    2.5485  -14.9191   17.3571 H   0  0  0  0  0  0  0  0  0  0  0  0
    4.8486  -15.8844   18.4286 H   0  0  0  0  0  0  0  0  0  0  0  0
    1.9890  -14.3592   21.1247 H   0  0  0  0  0  0  0  0  0  0  0  0
    0.4509  -18.3820   21.5819 H   0  0  0  0  0  0  0  0  0  0  0  0
   -1.8255  -19.7734   22.1261 H   0  0  0  0  0  0  0  0  0  0  0  0
   -2.4891  -16.5141   18.3687 H   0  0  0  0  0  0  0  0  0  0  0  0
   -2.1695  -19.2120   18.0266 H   0  0  0  0  0  0  0  0  0  0  0  0
   -3.6015  -18.4801   17.3007 H   0  0  0  0  0  0  0  0  0  0  0  0
   -4.6456  -20.1819   18.3060 H   0  0  0  0  0  0  0  0  0  0  0  0
   -3.6609  -20.1461   19.7559 H   0  0  0  0  0  0  0  0  0  0  0  0
   -6.0476  -18.5288   19.1306 H   0  0  0  0  0  0  0  0  0  0  0  0
   -5.2032  -18.6634   20.6652 H   0  0  0  0  0  0  0  0  0  0  0  0
   -4.9102  -16.7339   18.4370 H   0  0  0  0  0  0  0  0  0  0  0  0
   -4.5925  -16.4462   20.1755 H   0  0  0  0  0  0  0  0  0  0  0  0
    9.5033   -7.3423   19.8320 H   0  0  0  0  0  0  0  0  0  0  0  0
   12.3352   -8.0255   22.5720 H   0  0  0  0  0  0  0  0  0  0  0  0
   10.2765   -9.3984   22.7912 H   0  0  0  0  0  0  0  0  0  0  0  0
  1  2  2  0
  2  3  1  0
  3  4  1  0
  4  5  1  0
  5  6  1  0
  6  7  1  0
  5  8  1  0
  8  9  1  0
  9 10  2  0
  9 11  1  0
 11 12  2  0
 12 13  1  0
 13 14  2  0
 14 15  1  0
 15 16  1  0
 16 17  1  0
 17 18  1  0
 18 19  1  0
 19 20  1  0
  2 21  1  0
 21 22  1  0
 22 23  2  0
 23 24  1  0
 24 25  1  0
 15 11  1  0
 20 16  1  0
 25 21  2  0
  3 26  1  0
  4 27  1  0
  4 28  1  0
  5 29  1  0
  6 30  1  0
  6 31  1  0
  7 32  1  0
  8 33  1  0
 12 34  1  0
 13 35  1  0
 16 36  1  0
 17 37  1  0
 17 38  1  0
 18 39  1  0
 18 40  1  0
 19 41  1  0
 19 42  1  0
 20 43  1  0
 20 44  1  0
 22 45  1  0
 24 46  1  0
 25 47  1  0
M  END
>  <Energy>  (17) 
1181.8035537255782

>  <compound_id>  (17) 
28369

>  <target_id>  (17) 
1

>  <reference_id>  (17) 
122

>  <inspiration_ids>  (17) 
[122, 96]

>  <energy_score>  (17) 
1136.8434417795372

>  <distance_score>  (17) 
11.55775742863177

>  <path>  (17) 
/opt/xchem-fragalysis-2/maxwin/BulkDock/SCRATCH/511025/C28369-P122/C28369-P122.minimised.mol

>  <scratch_subdir>  (17) 
/opt/xchem-fragalysis-2/maxwin/BulkDock/SCRATCH/511025/C28369-P122

>  <fragmenstein_runtime>  (17) 
34.64437913894653

>  <fragmenstein_outcome>  (17) 
too moved

>  <fragmenstein_mode>  (17) 
expansion

>  <fragmenstein_error>  (17) 


$$$$
C28369-P96
     RDKit          3D

 47 49  0  0  0  0  0  0  0  0999 V2000
    2.2843  -13.9985   16.1712 O   0  0  0  0  0  0  0  0  0  0  0  0
    2.1298  -13.5303   17.2488 C   0  0  0  0  0  0  0  0  0  0  0  0
    1.2561  -14.0238   18.4397 N   0  0  0  0  0  0  0  0  0  0  0  0
    0.0101  -15.4967   18.5463 C   0  0  0  0  0  0  0  0  0  0  0  0
   -1.5909  -16.2659   18.9677 C   0  0  0  0  0  0  0  0  0  0  0  0
   -0.8647  -16.6063   20.1466 C   0  0  0  0  0  0  0  0  0  0  0  0
   -0.6821  -15.2605   20.4703 O   0  0  0  0  0  0  0  0  0  0  0  0
   -2.4213  -17.5890   18.6512 N   0  0  0  0  0  0  0  0  0  0  0  0
   -3.3523  -18.1177   18.8956 C   0  0  0  0  0  0  0  0  0  0  0  0
   -4.1159  -17.0554   19.8260 O   0  0  0  0  0  0  0  0  0  0  0  0
   -3.8927  -19.4239   18.6827 C   0  0  0  0  0  0  0  0  0  0  0  0
   -4.0014  -20.1378   17.5047 C   0  0  0  0  0  0  0  0  0  0  0  0
   -4.8314  -21.2346   17.7873 C   0  0  0  0  0  0  0  0  0  0  0  0
   -5.1929  -21.2751   19.0615 N   0  0  0  0  0  0  0  0  0  0  0  0
   -4.5348  -20.2306   19.6262 N   0  0  0  0  0  0  0  0  0  0  0  0
   -4.4488  -20.3252   21.0716 C   0  0  0  0  0  0  0  0  0  0  0  0
   -3.9965  -19.1470   21.9125 C   0  0  0  0  0  0  0  0  0  0  0  0
   -3.5688  -19.7947   23.2183 C   0  0  0  0  0  0  0  0  0  0  0  0
   -2.8048  -21.0252   22.7754 C   0  0  0  0  0  0  0  0  0  0  0  0
   -3.5228  -21.4870   21.5096 C   0  0  0  0  0  0  0  0  0  0  0  0
    3.1397  -12.1009   17.6147 C   0  0  0  0  0  0  0  0  0  0  0  0
    4.3979  -11.8975   18.1883 C   0  0  0  0  0  0  0  0  0  0  0  0
    4.9866  -10.7309   18.3379 N   0  0  0  0  0  0  0  0  0  0  0  0
    4.5767  -10.3696   17.1864 N   0  0  0  0  0  0  0  0  0  0  0  0
    3.5352  -11.2039   16.7780 C   0  0  0  0  0  0  0  0  0  0  0  0
    1.3667  -13.3891   19.2207 H   0  0  0  0  0  0  0  0  0  0  0  0
   -0.7274  -14.8582   18.1726 H   0  0  0  0  0  0  0  0  0  0  0  0
    0.3371  -16.3376   17.8725 H   0  0  0  0  0  0  0  0  0  0  0  0
   -2.3550  -15.4734   18.9462 H   0  0  0  0  0  0  0  0  0  0  0  0
   -1.4431  -17.2162   20.8064 H   0  0  0  0  0  0  0  0  0  0  0  0
    0.0557  -17.1389   20.0662 H   0  0  0  0  0  0  0  0  0  0  0  0
    0.0948  -14.8047   20.1665 H   0  0  0  0  0  0  0  0  0  0  0  0
   -1.5603  -17.4602   18.1765 H   0  0  0  0  0  0  0  0  0  0  0  0
   -3.6089  -19.8455   16.5410 H   0  0  0  0  0  0  0  0  0  0  0  0
   -5.1981  -21.9959   17.1111 H   0  0  0  0  0  0  0  0  0  0  0  0
   -5.4705  -20.5696   21.4020 H   0  0  0  0  0  0  0  0  0  0  0  0
   -4.7914  -18.4101   22.0592 H   0  0  0  0  0  0  0  0  0  0  0  0
   -3.1338  -18.6548   21.4745 H   0  0  0  0  0  0  0  0  0  0  0  0
   -4.4342  -20.1127   23.7945 H   0  0  0  0  0  0  0  0  0  0  0  0
   -2.9847  -19.1235   23.8464 H   0  0  0  0  0  0  0  0  0  0  0  0
   -2.7881  -21.8017   23.5463 H   0  0  0  0  0  0  0  0  0  0  0  0
   -1.7665  -20.7629   22.5493 H   0  0  0  0  0  0  0  0  0  0  0  0
   -2.7920  -21.7616   20.7406 H   0  0  0  0  0  0  0  0  0  0  0  0
   -4.1224  -22.3821   21.7148 H   0  0  0  0  0  0  0  0  0  0  0  0
    5.0057  -12.6429   17.7557 H   0  0  0  0  0  0  0  0  0  0  0  0
    4.9589   -9.5471   16.7549 H   0  0  0  0  0  0  0  0  0  0  0  0
    2.9517  -11.0708   15.8297 H   0  0  0  0  0  0  0  0  0  0  0  0
  1  2  2  0
  2  3  1  0
  3  4  1  0
  4  5  1  0
  5  6  1  0
  6  7  1  0
  5  8  1  0
  8  9  1  0
  9 10  2  0
  9 11  1  0
 11 12  2  0
 12 13  1  0
 13 14  2  0
 14 15  1  0
 15 16  1  0
 16 17  1  0
 17 18  1  0
 18 19  1  0
 19 20  1  0
  2 21  1  0
 21 22  1  0
 22 23  2  0
 23 24  1  0
 24 25  1  0
 15 11  1  0
 20 16  1  0
 25 21  2  0
  3 26  1  0
  4 27  1  0
  4 28  1  0
  5 29  1  0
  6 30  1  0
  6 31  1  0
  7 32  1  0
  8 33  1  0
 12 34  1  0
 13 35  1  0
 16 36  1  0
 17 37  1  0
 17 38  1  0
 18 39  1  0
 18 40  1  0
 19 41  1  0
 19 42  1  0
 20 43  1  0
 20 44  1  0
 22 45  1  0
 24 46  1  0
 25 47  1  0
M  END
>  <Energy>  (18) 
588.28784449144052

>  <compound_id>  (18) 
28369

>  <target_id>  (18) 
1

>  <reference_id>  (18) 
96

>  <inspiration_ids>  (18) 
[122, 96]

>  <energy_score>  (18) 
543.3277325453735

>  <distance_score>  (18) 
12.815565011978386

>  <path>  (18) 
/opt/xchem-fragalysis-2/maxwin/BulkDock/SCRATCH/511025/C28369-P96/C28369-P96.minimised.mol

>  <scratch_subdir>  (18) 
/opt/xchem-fragalysis-2/maxwin/BulkDock/SCRATCH/511025/C28369-P96

>  <fragmenstein_runtime>  (18) 
36.17846608161926

>  <fragmenstein_outcome>  (18) 
too moved

>  <fragmenstein_mode>  (18) 
expansion

>  <fragmenstein_error>  (18) 


$$$$
C18701-P122
     RDKit          3D

 47 49  0  0  0  0  0  0  0  0999 V2000
    0.1060  -10.9454   22.2320 O   0  0  0  0  0  0  0  0  0  0  0  0
   -0.5832  -10.1239   21.7668 C   0  0  0  0  0  0  0  0  0  0  0  0
   -1.9088  -10.1356   21.4694 N   0  0  0  0  0  0  0  0  0  0  0  0
   -2.8976  -11.0937   21.7173 C   0  0  0  0  0  0  0  0  0  0  0  0
   -3.5001  -11.1206   23.7975 C   0  0  0  0  0  0  0  0  0  0  0  0
   -3.4717   -9.3330   23.0487 C   0  0  0  0  0  0  0  0  0  0  0  0
   -2.3569   -8.5455   22.7498 O   0  0  0  0  0  0  0  0  0  0  0  0
   -2.9302  -12.1251   25.5039 N   0  0  0  0  0  0  0  0  0  0  0  0
   -2.3797  -13.8938   25.8128 C   0  0  0  0  0  0  0  0  0  0  0  0
   -2.1619  -14.8085   25.0183 O   0  0  0  0  0  0  0  0  0  0  0  0
   -2.2410  -14.5408   27.5930 C   0  0  0  0  0  0  0  0  0  0  0  0
   -2.9073  -13.9305   28.7501 C   0  0  0  0  0  0  0  0  0  0  0  0
   -2.4970  -14.5711   29.9131 C   0  0  0  0  0  0  0  0  0  0  0  0
   -1.6831  -15.5618   29.6051 N   0  0  0  0  0  0  0  0  0  0  0  0
   -1.9745  -15.8066   28.2849 N   0  0  0  0  0  0  0  0  0  0  0  0
   -2.2559  -17.2363   28.1378 C   0  0  0  0  0  0  0  0  0  0  0  0
   -1.0574  -18.1551   28.5096 C   0  0  0  0  0  0  0  0  0  0  0  0
   -1.0622  -19.2967   27.5020 C   0  0  0  0  0  0  0  0  0  0  0  0
   -2.5024  -19.3715   27.0427 C   0  0  0  0  0  0  0  0  0  0  0  0
   -2.9164  -17.9078   26.9473 C   0  0  0  0  0  0  0  0  0  0  0  0
   -0.0022   -8.8990   21.5723 C   0  0  0  0  0  0  0  0  0  0  0  0
    0.5021   -8.1756   20.5721 C   0  0  0  0  0  0  0  0  0  0  0  0
    1.0028   -7.1401   21.3281 C   0  0  0  0  0  0  0  0  0  0  0  0
    0.6162   -7.2192   22.6128 N   0  0  0  0  0  0  0  0  0  0  0  0
   -0.0123   -8.2869   22.7658 N   0  0  0  0  0  0  0  0  0  0  0  0
   -2.1826   -9.2072   21.1523 H   0  0  0  0  0  0  0  0  0  0  0  0
   -3.7304  -10.8987   21.0118 H   0  0  0  0  0  0  0  0  0  0  0  0
   -2.4006  -11.9428   21.2174 H   0  0  0  0  0  0  0  0  0  0  0  0
   -2.7250  -10.2480   24.2082 H   0  0  0  0  0  0  0  0  0  0  0  0
   -4.2099   -8.5378   22.9810 H   0  0  0  0  0  0  0  0  0  0  0  0
   -3.9140   -9.5776   22.1429 H   0  0  0  0  0  0  0  0  0  0  0  0
   -2.1734   -7.9877   23.5303 H   0  0  0  0  0  0  0  0  0  0  0  0
   -3.0250  -11.6403   26.3783 H   0  0  0  0  0  0  0  0  0  0  0  0
   -3.5146  -13.0311   28.7103 H   0  0  0  0  0  0  0  0  0  0  0  0
   -2.6876  -14.3210   30.9478 H   0  0  0  0  0  0  0  0  0  0  0  0
   -2.9955  -17.4047   28.9417 H   0  0  0  0  0  0  0  0  0  0  0  0
   -0.0863  -17.6538   28.5249 H   0  0  0  0  0  0  0  0  0  0  0  0
   -1.2141  -18.5569   29.5193 H   0  0  0  0  0  0  0  0  0  0  0  0
   -0.7139  -20.2367   27.9396 H   0  0  0  0  0  0  0  0  0  0  0  0
   -0.4106  -19.0582   26.6557 H   0  0  0  0  0  0  0  0  0  0  0  0
   -3.1049  -19.8943   27.7903 H   0  0  0  0  0  0  0  0  0  0  0  0
   -2.6108  -19.9045   26.0952 H   0  0  0  0  0  0  0  0  0  0  0  0
   -2.5599  -17.5021   26.0118 H   0  0  0  0  0  0  0  0  0  0  0  0
   -4.0047  -17.8166   26.9879 H   0  0  0  0  0  0  0  0  0  0  0  0
    0.5840   -8.3294   19.5082 H   0  0  0  0  0  0  0  0  0  0  0  0
    1.5256   -6.2466   20.9900 H   0  0  0  0  0  0  0  0  0  0  0  0
    0.7424   -6.6059   23.4230 H   0  0  0  0  0  0  0  0  0  0  0  0
  1  2  2  0
  2  3  1  0
  3  4  1  0
  4  5  1  0
  5  6  1  0
  6  7  1  0
  5  8  1  0
  8  9  1  0
  9 10  2  0
  9 11  1  0
 11 12  2  0
 12 13  1  0
 13 14  2  0
 14 15  1  0
 15 16  1  0
 16 17  1  0
 17 18  1  0
 18 19  1  0
 19 20  1  0
  2 21  1  0
 21 22  1  0
 22 23  2  0
 23 24  1  0
 24 25  1  0
 15 11  1  0
 20 16  1  0
 25 21  2  0
  3 26  1  0
  4 27  1  0
  4 28  1  0
  5 29  1  0
  6 30  1  0
  6 31  1  0
  7 32  1  0
  8 33  1  0
 12 34  1  0
 13 35  1  0
 16 36  1  0
 17 37  1  0
 17 38  1  0
 18 39  1  0
 18 40  1  0
 19 41  1  0
 19 42  1  0
 20 43  1  0
 20 44  1  0
 22 45  1  0
 23 46  1  0
 24 47  1  0
M  END
>  <Energy>  (19) 
702.41181354618561

>  <compound_id>  (19) 
18701

>  <target_id>  (19) 
1

>  <reference_id>  (19) 
122

>  <inspiration_ids>  (19) 
[122, 96]

>  <energy_score>  (19) 
626.297960781489

>  <distance_score>  (19) 
13.761348419236091

>  <path>  (19) 
/opt/xchem-fragalysis-2/maxwin/BulkDock/SCRATCH/511025/C18701-P122/C18701-P122.minimised.mol

>  <scratch_subdir>  (19) 
/opt/xchem-fragalysis-2/maxwin/BulkDock/SCRATCH/511025/C18701-P122

>  <fragmenstein_runtime>  (19) 
65.02631187438965

>  <fragmenstein_outcome>  (19) 
too moved

>  <fragmenstein_mode>  (19) 
expansion

>  <fragmenstein_error>  (19) 


$$$$
C18701-P96
     RDKit          3D

 47 49  0  0  0  0  0  0  0  0999 V2000
    0.0516  -12.5202   10.3062 O   0  0  0  0  0  0  0  0  0  0  0  0
    0.4223  -12.4476   11.4424 C   0  0  0  0  0  0  0  0  0  0  0  0
    0.0539  -13.2281   12.6069 N   0  0  0  0  0  0  0  0  0  0  0  0
   -0.8208  -14.4235   12.7437 C   0  0  0  0  0  0  0  0  0  0  0  0
   -2.3517  -14.1825   13.0092 C   0  0  0  0  0  0  0  0  0  0  0  0
   -3.1165  -14.1425   11.6762 C   0  0  0  0  0  0  0  0  0  0  0  0
   -4.4927  -13.8334   11.9102 O   0  0  0  0  0  0  0  0  0  0  0  0
   -3.0410  -15.1218   13.9670 N   0  0  0  0  0  0  0  0  0  0  0  0
   -3.1879  -16.5590   13.9454 C   0  0  0  0  0  0  0  0  0  0  0  0
   -2.7323  -17.3760   13.2030 O   0  0  0  0  0  0  0  0  0  0  0  0
   -4.0147  -17.0488   15.0928 C   0  0  0  0  0  0  0  0  0  0  0  0
   -5.2844  -16.6782   15.5301 C   0  0  0  0  0  0  0  0  0  0  0  0
   -5.5932  -17.4930   16.6410 C   0  0  0  0  0  0  0  0  0  0  0  0
   -4.6011  -18.3263   16.9291 N   0  0  0  0  0  0  0  0  0  0  0  0
   -3.6813  -18.0952   15.9542 N   0  0  0  0  0  0  0  0  0  0  0  0
   -2.4595  -18.8922   15.9402 C   0  0  0  0  0  0  0  0  0  0  0  0
   -2.7244  -20.3584   15.5576 C   0  0  0  0  0  0  0  0  0  0  0  0
   -1.9397  -21.1879   16.5662 C   0  0  0  0  0  0  0  0  0  0  0  0
   -1.9639  -20.3421   17.8275 C   0  0  0  0  0  0  0  0  0  0  0  0
   -1.7401  -18.9312   17.3024 C   0  0  0  0  0  0  0  0  0  0  0  0
    1.4900  -11.3705   11.7419 C   0  0  0  0  0  0  0  0  0  0  0  0
    2.3539  -10.7280   10.7908 C   0  0  0  0  0  0  0  0  0  0  0  0
    3.1424   -9.8425   11.4918 C   0  0  0  0  0  0  0  0  0  0  0  0
    2.7326   -9.9398   12.7817 N   0  0  0  0  0  0  0  0  0  0  0  0
    1.7537  -10.8562   12.9682 N   0  0  0  0  0  0  0  0  0  0  0  0
    0.6342  -12.9417   13.3966 H   0  0  0  0  0  0  0  0  0  0  0  0
   -0.6880  -15.0204   11.8343 H   0  0  0  0  0  0  0  0  0  0  0  0
   -0.3925  -14.9964   13.5700 H   0  0  0  0  0  0  0  0  0  0  0  0
   -2.4705  -13.2102   13.4991 H   0  0  0  0  0  0  0  0  0  0  0  0
   -3.0696  -15.1044   11.1546 H   0  0  0  0  0  0  0  0  0  0  0  0
   -2.7085  -13.3709   11.0164 H   0  0  0  0  0  0  0  0  0  0  0  0
   -4.8512  -14.5864   12.4120 H   0  0  0  0  0  0  0  0  0  0  0  0
   -3.5029  -14.7543   14.7915 H   0  0  0  0  0  0  0  0  0  0  0  0
   -5.9160  -15.9214   15.0867 H   0  0  0  0  0  0  0  0  0  0  0  0
   -6.4895  -17.5070   17.2482 H   0  0  0  0  0  0  0  0  0  0  0  0
   -1.7773  -18.4394   15.2148 H   0  0  0  0  0  0  0  0  0  0  0  0
   -2.4016  -20.5708   14.5328 H   0  0  0  0  0  0  0  0  0  0  0  0
   -3.7897  -20.6116   15.6185 H   0  0  0  0  0  0  0  0  0  0  0  0
   -0.9077  -21.3218   16.2206 H   0  0  0  0  0  0  0  0  0  0  0  0
   -2.3785  -22.1780   16.7191 H   0  0  0  0  0  0  0  0  0  0  0  0
   -1.1956  -20.6432   18.5453 H   0  0  0  0  0  0  0  0  0  0  0  0
   -2.9409  -20.4168   18.3189 H   0  0  0  0  0  0  0  0  0  0  0  0
   -2.0780  -18.1685   18.0115 H   0  0  0  0  0  0  0  0  0  0  0  0
   -0.6650  -18.7757   17.1450 H   0  0  0  0  0  0  0  0  0  0  0  0
    2.3780  -10.9172    9.7257 H   0  0  0  0  0  0  0  0  0  0  0  0
    3.9229   -9.1611   11.1841 H   0  0  0  0  0  0  0  0  0  0  0  0
    3.0689   -9.4227   13.5903 H   0  0  0  0  0  0  0  0  0  0  0  0
  1  2  2  0
  2  3  1  0
  3  4  1  0
  4  5  1  0
  5  6  1  0
  6  7  1  0
  5  8  1  0
  8  9  1  0
  9 10  2  0
  9 11  1  0
 11 12  2  0
 12 13  1  0
 13 14  2  0
 14 15  1  0
 15 16  1  0
 16 17  1  0
 17 18  1  0
 18 19  1  0
 19 20  1  0
  2 21  1  0
 21 22  1  0
 22 23  2  0
 23 24  1  0
 24 25  1  0
 15 11  1  0
 20 16  1  0
 25 21  2  0
  3 26  1  0
  4 27  1  0
  4 28  1  0
  5 29  1  0
  6 30  1  0
  6 31  1  0
  7 32  1  0
  8 33  1  0
 12 34  1  0
 13 35  1  0
 16 36  1  0
 17 37  1  0
 17 38  1  0
 18 39  1  0
 18 40  1  0
 19 41  1  0
 19 42  1  0
 20 43  1  0
 20 44  1  0
 22 45  1  0
 23 46  1  0
 24 47  1  0
M  END
>  <Energy>  (20) 
45.005894231328227

>  <compound_id>  (20) 
18701

>  <target_id>  (20) 
1

>  <reference_id>  (20) 
96

>  <inspiration_ids>  (20) 
[122, 96]

>  <energy_score>  (20) 
-31.107958533369697

>  <distance_score>  (20) 
15.015362930556202

>  <path>  (20) 
/opt/xchem-fragalysis-2/maxwin/BulkDock/SCRATCH/511025/C18701-P96/C18701-P96.minimised.mol

>  <scratch_subdir>  (20) 
/opt/xchem-fragalysis-2/maxwin/BulkDock/SCRATCH/511025/C18701-P96

>  <fragmenstein_runtime>  (20) 
33.42501950263977

>  <fragmenstein_outcome>  (20) 
too moved

>  <fragmenstein_mode>  (20) 
expansion

>  <fragmenstein_error>  (20) 


$$$$
C28370-P122
     RDKit          3D

 33 35  0  0  0  0  0  0  0  0999 V2000
    6.1069  -13.2120   24.2612 O   0  0  0  0  0  0  0  0  0  0  0  0
    5.0906  -13.8423   24.1771 C   0  0  0  0  0  0  0  0  0  0  0  0
    3.7898  -13.4860   23.6017 N   0  0  0  0  0  0  0  0  0  0  0  0
    3.3177  -12.2609   23.0630 C   0  0  0  0  0  0  0  0  0  0  0  0
    4.0296  -11.1193   23.4091 C   0  0  0  0  0  0  0  0  0  0  0  0
    3.4137  -10.9628   24.6805 C   0  0  0  0  0  0  0  0  0  0  0  0
    2.1065  -11.3825   24.7547 N   0  0  0  0  0  0  0  0  0  0  0  0
    1.6925  -11.7588   23.1863 N   0  0  0  0  0  0  0  0  0  0  0  0
    0.4316  -10.7447   22.0469 C   0  0  0  0  0  0  0  0  0  0  0  0
    0.6029   -9.0683   21.3436 C   0  0  0  0  0  0  0  0  0  0  0  0
   -0.7006   -8.5786   20.6789 C   0  0  0  0  0  0  0  0  0  0  0  0
   -1.7884   -9.5053   21.1341 C   0  0  0  0  0  0  0  0  0  0  0  0
   -1.1598  -10.8943   21.1806 C   0  0  0  0  0  0  0  0  0  0  0  0
    5.1067  -15.1657   24.8524 C   0  0  0  0  0  0  0  0  0  0  0  0
    5.3000  -16.5138   24.4566 C   0  0  0  0  0  0  0  0  0  0  0  0
    5.1102  -17.3993   25.4471 N   0  0  0  0  0  0  0  0  0  0  0  0
    4.9431  -16.6289   26.5308 N   0  0  0  0  0  0  0  0  0  0  0  0
    4.9644  -15.2952   26.2347 C   0  0  0  0  0  0  0  0  0  0  0  0
    3.1896  -14.2842   23.6293 H   0  0  0  0  0  0  0  0  0  0  0  0
    5.0872  -10.9445   23.2607 H   0  0  0  0  0  0  0  0  0  0  0  0
    3.8478  -10.5219   25.5686 H   0  0  0  0  0  0  0  0  0  0  0  0
   -0.1219  -10.3989   22.8844 H   0  0  0  0  0  0  0  0  0  0  0  0
    1.4757   -8.9721   20.6951 H   0  0  0  0  0  0  0  0  0  0  0  0
    0.6289   -8.2724   22.1021 H   0  0  0  0  0  0  0  0  0  0  0  0
   -0.6262   -8.5227   19.5896 H   0  0  0  0  0  0  0  0  0  0  0  0
   -0.9334   -7.5493   20.9828 H   0  0  0  0  0  0  0  0  0  0  0  0
   -2.1467   -9.1983   22.1215 H   0  0  0  0  0  0  0  0  0  0  0  0
   -2.6450   -9.4776   20.4528 H   0  0  0  0  0  0  0  0  0  0  0  0
   -1.9024  -11.5896   21.4728 H   0  0  0  0  0  0  0  0  0  0  0  0
   -1.1243  -11.2911   20.1718 H   0  0  0  0  0  0  0  0  0  0  0  0
    5.5584  -16.9238   23.4957 H   0  0  0  0  0  0  0  0  0  0  0  0
    4.8278  -17.0762   27.4353 H   0  0  0  0  0  0  0  0  0  0  0  0
    4.8376  -14.5487   27.0072 H   0  0  0  0  0  0  0  0  0  0  0  0
  1  2  2  0
  2  3  1  0
  3  4  1  0
  4  5  2  0
  5  6  1  0
  6  7  2  0
  7  8  1  0
  8  9  1  0
  9 10  1  0
 10 11  1  0
 11 12  1  0
 12 13  1  0
  2 14  1  0
 14 15  1  0
 15 16  2  0
 16 17  1  0
 17 18  1  0
  8  4  1  0
 13  9  1  0
 18 14  2  0
  3 19  1  0
  5 20  1  0
  6 21  1  0
  9 22  1  0
 10 23  1  0
 10 24  1  0
 11 25  1  0
 11 26  1  0
 12 27  1  0
 12 28  1  0
 13 29  1  0
 13 30  1  0
 15 31  1  0
 17 32  1  0
 18 33  1  0
M  END
>  <Energy>  (21) 
372.7478672048718

>  <compound_id>  (21) 
28370

>  <target_id>  (21) 
1

>  <reference_id>  (21) 
122

>  <inspiration_ids>  (21) 
[122, 96]

>  <energy_score>  (21) 
317.3734152038727

>  <distance_score>  (21) 
16.9880043188316

>  <path>  (21) 
/opt/xchem-fragalysis-2/maxwin/BulkDock/SCRATCH/511025/C28370-P122/C28370-P122.minimised.mol

>  <scratch_subdir>  (21) 
/opt/xchem-fragalysis-2/maxwin/BulkDock/SCRATCH/511025/C28370-P122

>  <fragmenstein_runtime>  (21) 
23.40907335281372

>  <fragmenstein_outcome>  (21) 
too moved

>  <fragmenstein_mode>  (21) 
expansion

>  <fragmenstein_error>  (21) 


$$$$
C28370-P96
     RDKit          3D

 33 35  0  0  0  0  0  0  0  0999 V2000
    5.1046   -9.9636   18.2699 O   0  0  0  0  0  0  0  0  0  0  0  0
    5.0692  -10.0428   17.0740 C   0  0  0  0  0  0  0  0  0  0  0  0
    5.9353   -9.2887   15.9477 N   0  0  0  0  0  0  0  0  0  0  0  0
    7.2516   -8.2361   16.0491 C   0  0  0  0  0  0  0  0  0  0  0  0
    8.0632   -9.0975   15.0143 C   0  0  0  0  0  0  0  0  0  0  0  0
    9.4208   -9.2034   15.3542 C   0  0  0  0  0  0  0  0  0  0  0  0
    9.8728   -8.3472   16.2889 N   0  0  0  0  0  0  0  0  0  0  0  0
    8.6753   -7.2042   16.8039 N   0  0  0  0  0  0  0  0  0  0  0  0
    9.5426   -6.2882   18.1638 C   0  0  0  0  0  0  0  0  0  0  0  0
    9.6916   -6.5738   19.8441 C   0  0  0  0  0  0  0  0  0  0  0  0
   11.1324   -6.1939   20.2111 C   0  0  0  0  0  0  0  0  0  0  0  0
   11.3306   -4.8781   19.4904 C   0  0  0  0  0  0  0  0  0  0  0  0
   10.8335   -5.1758   18.0641 C   0  0  0  0  0  0  0  0  0  0  0  0
    4.0500  -11.1900   16.4797 C   0  0  0  0  0  0  0  0  0  0  0  0
    3.1790  -11.9183   17.2322 C   0  0  0  0  0  0  0  0  0  0  0  0
    2.5002  -12.9289   16.6038 N   0  0  0  0  0  0  0  0  0  0  0  0
    2.9804  -12.9366   15.4093 N   0  0  0  0  0  0  0  0  0  0  0  0
    3.9288  -11.9857   15.3012 C   0  0  0  0  0  0  0  0  0  0  0  0
    5.7002   -9.6606   15.0214 H   0  0  0  0  0  0  0  0  0  0  0  0
    7.6056   -9.6943   14.2343 H   0  0  0  0  0  0  0  0  0  0  0  0
   10.1392   -9.8852   14.9110 H   0  0  0  0  0  0  0  0  0  0  0  0
   10.3508   -7.0405   18.0509 H   0  0  0  0  0  0  0  0  0  0  0  0
    9.1362   -5.8616   20.4452 H   0  0  0  0  0  0  0  0  0  0  0  0
    9.4981   -7.5790   20.2201 H   0  0  0  0  0  0  0  0  0  0  0  0
   11.2606   -6.0869   21.2928 H   0  0  0  0  0  0  0  0  0  0  0  0
   11.8374   -6.9544   19.8566 H   0  0  0  0  0  0  0  0  0  0  0  0
   12.3835   -4.5758   19.4915 H   0  0  0  0  0  0  0  0  0  0  0  0
   10.7677   -4.0767   19.9770 H   0  0  0  0  0  0  0  0  0  0  0  0
   11.7475   -5.6516   17.6878 H   0  0  0  0  0  0  0  0  0  0  0  0
   10.6496   -4.2775   17.4681 H   0  0  0  0  0  0  0  0  0  0  0  0
    3.0274  -11.7181   18.2902 H   0  0  0  0  0  0  0  0  0  0  0  0
    2.6753  -13.6409   14.7457 H   0  0  0  0  0  0  0  0  0  0  0  0
    4.5061  -12.0185   14.3840 H   0  0  0  0  0  0  0  0  0  0  0  0
  1  2  2  0
  2  3  1  0
  3  4  1  0
  4  5  2  0
  5  6  1  0
  6  7  2  0
  7  8  1  0
  8  9  1  0
  9 10  1  0
 10 11  1  0
 11 12  1  0
 12 13  1  0
  2 14  1  0
 14 15  1  0
 15 16  2  0
 16 17  1  0
 17 18  1  0
  8  4  1  0
 13  9  1  0
 18 14  2  0
  3 19  1  0
  5 20  1  0
  6 21  1  0
  9 22  1  0
 10 23  1  0
 10 24  1  0
 11 25  1  0
 11 26  1  0
 12 27  1  0
 12 28  1  0
 13 29  1  0
 13 30  1  0
 15 31  1  0
 17 32  1  0
 18 33  1  0
M  END
>  <Energy>  (22) 
486.96194258525139

>  <compound_id>  (22) 
28370

>  <target_id>  (22) 
1

>  <reference_id>  (22) 
96

>  <inspiration_ids>  (22) 
[122, 96]

>  <energy_score>  (22) 
431.58749058425155

>  <distance_score>  (22) 
17.297101072657814

>  <path>  (22) 
/opt/xchem-fragalysis-2/maxwin/BulkDock/SCRATCH/511025/C28370-P96/C28370-P96.minimised.mol

>  <scratch_subdir>  (22) 
/opt/xchem-fragalysis-2/maxwin/BulkDock/SCRATCH/511025/C28370-P96

>  <fragmenstein_runtime>  (22) 
16.23156428337097

>  <fragmenstein_outcome>  (22) 
too moved

>  <fragmenstein_mode>  (22) 
expansion

>  <fragmenstein_error>  (22) 


$$$$
C28371-P122
     RDKit          3D

 49 51  0  0  0  0  0  0  0  0999 V2000
    2.7222  -14.7791   18.4795 C   0  0  0  0  0  0  0  0  0  0  0  0
    2.3931  -14.6178   19.9707 C   0  0  0  0  0  0  0  0  0  0  0  0
    3.9367  -13.2244   20.3325 C   0  0  0  0  0  0  0  0  0  0  0  0
    5.7011  -12.7392   20.1982 N   0  0  0  0  0  0  0  0  0  0  0  0
    6.4232  -11.4430   19.4537 C   0  0  0  0  0  0  0  0  0  0  0  0
    5.8554  -10.6041   18.8956 O   0  0  0  0  0  0  0  0  0  0  0  0
    8.2215  -11.1880   19.2482 C   0  0  0  0  0  0  0  0  0  0  0  0
    9.7201  -11.5173   18.2429 C   0  0  0  0  0  0  0  0  0  0  0  0
    9.7111  -11.5635   16.9178 N   0  0  0  0  0  0  0  0  0  0  0  0
    8.7505  -10.6986   16.8622 N   0  0  0  0  0  0  0  0  0  0  0  0
    8.4426  -10.3052   18.1689 C   0  0  0  0  0  0  0  0  0  0  0  0
    0.8267  -15.9364   20.4849 C   0  0  0  0  0  0  0  0  0  0  0  0
   -0.8947  -16.2432   20.0145 N   0  0  0  0  0  0  0  0  0  0  0  0
   -1.8145  -17.3607   20.3575 C   0  0  0  0  0  0  0  0  0  0  0  0
   -1.6436  -18.3209   21.0510 O   0  0  0  0  0  0  0  0  0  0  0  0
   -3.2376  -17.3526   19.8298 C   0  0  0  0  0  0  0  0  0  0  0  0
   -3.7456  -18.3844   18.9695 C   0  0  0  0  0  0  0  0  0  0  0  0
   -5.0950  -18.4890   19.2207 C   0  0  0  0  0  0  0  0  0  0  0  0
   -5.3587  -17.5679   20.1845 N   0  0  0  0  0  0  0  0  0  0  0  0
   -6.6295  -17.3013   20.8341 C   0  0  0  0  0  0  0  0  0  0  0  0
   -7.0933  -18.4590   21.7340 C   0  0  0  0  0  0  0  0  0  0  0  0
   -8.5911  -18.5746   21.4881 C   0  0  0  0  0  0  0  0  0  0  0  0
   -8.7369  -18.2078   20.0216 C   0  0  0  0  0  0  0  0  0  0  0  0
   -7.7842  -17.0314   19.8536 C   0  0  0  0  0  0  0  0  0  0  0  0
   -4.2732  -16.8855   20.5751 N   0  0  0  0  0  0  0  0  0  0  0  0
    1.9763  -14.2285   17.9177 H   0  0  0  0  0  0  0  0  0  0  0  0
    3.7257  -14.4542   18.2240 H   0  0  0  0  0  0  0  0  0  0  0  0
    2.6621  -15.7442   18.0722 H   0  0  0  0  0  0  0  0  0  0  0  0
    2.6258  -14.7973   20.9804 H   0  0  0  0  0  0  0  0  0  0  0  0
    3.9954  -12.7899   19.3324 H   0  0  0  0  0  0  0  0  0  0  0  0
    3.7057  -12.7469   21.2718 H   0  0  0  0  0  0  0  0  0  0  0  0
    6.3858  -13.2585   20.6661 H   0  0  0  0  0  0  0  0  0  0  0  0
   10.7304  -11.2563   18.5600 H   0  0  0  0  0  0  0  0  0  0  0  0
    8.6099  -10.2266   15.9765 H   0  0  0  0  0  0  0  0  0  0  0  0
    8.6396   -9.3202   18.4856 H   0  0  0  0  0  0  0  0  0  0  0  0
    0.5272  -15.6854   21.5087 H   0  0  0  0  0  0  0  0  0  0  0  0
    0.8815  -16.9770   20.6244 H   0  0  0  0  0  0  0  0  0  0  0  0
   -1.3986  -15.5550   19.4668 H   0  0  0  0  0  0  0  0  0  0  0  0
   -3.1550  -19.0528   18.3598 H   0  0  0  0  0  0  0  0  0  0  0  0
   -5.8479  -19.1605   18.8346 H   0  0  0  0  0  0  0  0  0  0  0  0
   -6.4847  -16.4012   21.4468 H   0  0  0  0  0  0  0  0  0  0  0  0
   -6.8745  -18.2637   22.7891 H   0  0  0  0  0  0  0  0  0  0  0  0
   -6.6019  -19.4035   21.4712 H   0  0  0  0  0  0  0  0  0  0  0  0
   -8.9718  -19.5765   21.7049 H   0  0  0  0  0  0  0  0  0  0  0  0
   -9.1338  -17.8582   22.1162 H   0  0  0  0  0  0  0  0  0  0  0  0
   -8.4216  -19.0449   19.3878 H   0  0  0  0  0  0  0  0  0  0  0  0
   -9.7661  -17.9483   19.7578 H   0  0  0  0  0  0  0  0  0  0  0  0
   -7.4702  -16.9051   18.8126 H   0  0  0  0  0  0  0  0  0  0  0  0
   -8.2992  -16.1093   20.1517 H   0  0  0  0  0  0  0  0  0  0  0  0
  1  2  1  0
  2  3  1  0
  3  4  1  0
  4  5  1  0
  5  6  2  0
  5  7  1  0
  7  8  1  0
  8  9  2  0
  9 10  1  0
 10 11  1  0
  2 12  1  0
 12 13  1  0
 13 14  1  0
 14 15  2  0
 14 16  1  0
 16 17  1  0
 17 18  2  0
 18 19  1  0
 19 20  1  0
 20 21  1  0
 21 22  1  0
 22 23  1  0
 23 24  1  0
 19 25  1  0
 11  7  2  0
 25 16  2  0
 24 20  1  0
  1 26  1  0
  1 27  1  0
  1 28  1  0
  2 29  1  0
  3 30  1  0
  3 31  1  0
  4 32  1  0
  8 33  1  0
 10 34  1  0
 11 35  1  0
 12 36  1  0
 12 37  1  0
 13 38  1  0
 17 39  1  0
 18 40  1  0
 20 41  1  0
 21 42  1  0
 21 43  1  0
 22 44  1  0
 22 45  1  0
 23 46  1  0
 23 47  1  0
 24 48  1  0
 24 49  1  0
M  END
>  <Energy>  (23) 
714.97537115672537

>  <compound_id>  (23) 
28371

>  <target_id>  (23) 
1

>  <reference_id>  (23) 
122

>  <inspiration_ids>  (23) 
[122, 96]

>  <energy_score>  (23) 
650.1950133339401

>  <distance_score>  (23) 
11.475956473465045

>  <path>  (23) 
/opt/xchem-fragalysis-2/maxwin/BulkDock/SCRATCH/511025/C28371-P122/C28371-P122.minimised.mol

>  <scratch_subdir>  (23) 
/opt/xchem-fragalysis-2/maxwin/BulkDock/SCRATCH/511025/C28371-P122

>  <fragmenstein_runtime>  (23) 
48.48829793930054

>  <fragmenstein_outcome>  (23) 
too moved

>  <fragmenstein_mode>  (23) 
expansion

>  <fragmenstein_error>  (23) 


$$$$
C28371-P96
     RDKit          3D

 49 51  0  0  0  0  0  0  0  0999 V2000
    3.1108  -15.6884   24.2605 C   0  0  0  0  0  0  0  0  0  0  0  0
    2.6033  -15.5039   22.7736 C   0  0  0  0  0  0  0  0  0  0  0  0
    2.7349  -13.4111   21.9022 C   0  0  0  0  0  0  0  0  0  0  0  0
    2.4648  -11.3360   22.0947 N   0  0  0  0  0  0  0  0  0  0  0  0
    2.7968   -9.7973   20.8552 C   0  0  0  0  0  0  0  0  0  0  0  0
    3.1292  -10.1225   19.7616 O   0  0  0  0  0  0  0  0  0  0  0  0
    2.9107   -7.7028   21.0174 C   0  0  0  0  0  0  0  0  0  0  0  0
    2.8155   -6.1436   20.1759 C   0  0  0  0  0  0  0  0  0  0  0  0
    2.7732   -4.9005   20.6538 N   0  0  0  0  0  0  0  0  0  0  0  0
    3.3119   -5.1502   21.7916 N   0  0  0  0  0  0  0  0  0  0  0  0
    2.9729   -6.4402   22.1184 C   0  0  0  0  0  0  0  0  0  0  0  0
    1.2154  -16.7684   23.7585 C   0  0  0  0  0  0  0  0  0  0  0  0
   -0.1093  -17.1089   25.3032 N   0  0  0  0  0  0  0  0  0  0  0  0
   -1.8545  -16.7935   25.4480 C   0  0  0  0  0  0  0  0  0  0  0  0
   -2.4571  -16.1800   24.6480 O   0  0  0  0  0  0  0  0  0  0  0  0
   -3.0706  -17.5619   26.7057 C   0  0  0  0  0  0  0  0  0  0  0  0
   -2.8688  -19.0614   27.1427 C   0  0  0  0  0  0  0  0  0  0  0  0
   -3.9730  -20.0102   27.1264 C   0  0  0  0  0  0  0  0  0  0  0  0
   -5.3249  -19.4538   26.8774 N   0  0  0  0  0  0  0  0  0  0  0  0
   -7.0112  -20.1960   27.4803 C   0  0  0  0  0  0  0  0  0  0  0  0
   -8.9638  -20.4957   28.2277 C   0  0  0  0  0  0  0  0  0  0  0  0
   -9.7065  -21.7740   28.2462 C   0  0  0  0  0  0  0  0  0  0  0  0
   -8.4896  -22.4932   27.9944 C   0  0  0  0  0  0  0  0  0  0  0  0
   -6.9595  -21.6042   27.2762 C   0  0  0  0  0  0  0  0  0  0  0  0
   -4.6451  -17.9258   26.3030 N   0  0  0  0  0  0  0  0  0  0  0  0
    3.7093  -16.5951   24.2934 H   0  0  0  0  0  0  0  0  0  0  0  0
    2.4596  -15.8131   25.1279 H   0  0  0  0  0  0  0  0  0  0  0  0
    3.3311  -14.7414   24.7246 H   0  0  0  0  0  0  0  0  0  0  0  0
    3.0885  -16.1552   22.0980 H   0  0  0  0  0  0  0  0  0  0  0  0
    3.7953  -13.3497   22.1976 H   0  0  0  0  0  0  0  0  0  0  0  0
    2.6731  -13.3408   20.8568 H   0  0  0  0  0  0  0  0  0  0  0  0
    2.1091  -10.9724   22.9635 H   0  0  0  0  0  0  0  0  0  0  0  0
    3.1812   -5.9631   19.1888 H   0  0  0  0  0  0  0  0  0  0  0  0
    3.5322   -4.3760   22.4104 H   0  0  0  0  0  0  0  0  0  0  0  0
    2.7200   -6.3780   23.1843 H   0  0  0  0  0  0  0  0  0  0  0  0
    0.5639  -17.4437   23.1952 H   0  0  0  0  0  0  0  0  0  0  0  0
    2.0196  -17.4400   23.8032 H   0  0  0  0  0  0  0  0  0  0  0  0
    0.2066  -17.5748   26.1367 H   0  0  0  0  0  0  0  0  0  0  0  0
   -1.8647  -19.4099   27.3357 H   0  0  0  0  0  0  0  0  0  0  0  0
   -3.9447  -21.0725   27.3091 H   0  0  0  0  0  0  0  0  0  0  0  0
   -7.2384  -19.5907   26.6833 H   0  0  0  0  0  0  0  0  0  0  0  0
   -9.5077  -19.8528   27.5810 H   0  0  0  0  0  0  0  0  0  0  0  0
   -9.4835  -20.0196   29.1188 H   0  0  0  0  0  0  0  0  0  0  0  0
  -10.1758  -22.0348   29.2009 H   0  0  0  0  0  0  0  0  0  0  0  0
  -10.4870  -21.8760   27.4844 H   0  0  0  0  0  0  0  0  0  0  0  0
   -8.8209  -23.2669   27.2937 H   0  0  0  0  0  0  0  0  0  0  0  0
   -8.2348  -22.9862   28.9519 H   0  0  0  0  0  0  0  0  0  0  0  0
   -6.0476  -21.8535   27.8154 H   0  0  0  0  0  0  0  0  0  0  0  0
   -6.7673  -21.8574   26.2284 H   0  0  0  0  0  0  0  0  0  0  0  0
  1  2  1  0
  2  3  1  0
  3  4  1  0
  4  5  1  0
  5  6  2  0
  5  7  1  0
  7  8  1  0
  8  9  2  0
  9 10  1  0
 10 11  1  0
  2 12  1  0
 12 13  1  0
 13 14  1  0
 14 15  2  0
 14 16  1  0
 16 17  1  0
 17 18  2  0
 18 19  1  0
 19 20  1  0
 20 21  1  0
 21 22  1  0
 22 23  1  0
 23 24  1  0
 19 25  1  0
 11  7  2  0
 25 16  2  0
 24 20  1  0
  1 26  1  0
  1 27  1  0
  1 28  1  0
  2 29  1  0
  3 30  1  0
  3 31  1  0
  4 32  1  0
  8 33  1  0
 10 34  1  0
 11 35  1  0
 12 36  1  0
 12 37  1  0
 13 38  1  0
 17 39  1  0
 18 40  1  0
 20 41  1  0
 21 42  1  0
 21 43  1  0
 22 44  1  0
 22 45  1  0
 23 46  1  0
 23 47  1  0
 24 48  1  0
 24 49  1  0
M  END
>  <Energy>  (24) 
1684.3936978280699

>  <compound_id>  (24) 
28371

>  <target_id>  (24) 
1

>  <reference_id>  (24) 
96

>  <inspiration_ids>  (24) 
[122, 96]

>  <energy_score>  (24) 
1619.6133400053254

>  <distance_score>  (24) 
10.255517909980721

>  <path>  (24) 
/opt/xchem-fragalysis-2/maxwin/BulkDock/SCRATCH/511025/C28371-P96/C28371-P96.minimised.mol

>  <scratch_subdir>  (24) 
/opt/xchem-fragalysis-2/maxwin/BulkDock/SCRATCH/511025/C28371-P96

>  <fragmenstein_runtime>  (24) 
26.08048152923584

>  <fragmenstein_outcome>  (24) 
too moved

>  <fragmenstein_mode>  (24) 
expansion

>  <fragmenstein_error>  (24) 


$$$$
C18703-P122
     RDKit          3D

 49 51  0  0  0  0  0  0  0  0999 V2000
   -3.5109  -10.0639   17.4352 C   0  0  0  0  0  0  0  0  0  0  0  0
   -2.4556  -10.6757   18.4592 C   0  0  0  0  0  0  0  0  0  0  0  0
   -1.6619  -12.3362   18.2346 C   0  0  0  0  0  0  0  0  0  0  0  0
   -1.9461  -14.0624   17.9630 N   0  0  0  0  0  0  0  0  0  0  0  0
   -2.0460  -15.3816   19.0882 C   0  0  0  0  0  0  0  0  0  0  0  0
   -1.8430  -15.3423   20.2618 O   0  0  0  0  0  0  0  0  0  0  0  0
   -2.6085  -16.8828   18.6653 C   0  0  0  0  0  0  0  0  0  0  0  0
   -3.8605  -17.1558   17.8926 C   0  0  0  0  0  0  0  0  0  0  0  0
   -4.4244  -18.3144   18.3483 C   0  0  0  0  0  0  0  0  0  0  0  0
   -3.5441  -18.7472   19.2661 N   0  0  0  0  0  0  0  0  0  0  0  0
   -2.5117  -17.9193   19.5195 N   0  0  0  0  0  0  0  0  0  0  0  0
   -1.5417   -9.2755   18.8251 C   0  0  0  0  0  0  0  0  0  0  0  0
   -0.7591   -8.0748   18.2718 N   0  0  0  0  0  0  0  0  0  0  0  0
    0.6759   -7.8893   18.0396 C   0  0  0  0  0  0  0  0  0  0  0  0
    1.5884   -8.6547   18.1490 O   0  0  0  0  0  0  0  0  0  0  0  0
    1.0674   -6.5163   17.5745 C   0  0  0  0  0  0  0  0  0  0  0  0
    2.4188   -6.0557   17.4153 C   0  0  0  0  0  0  0  0  0  0  0  0
    2.3395   -4.7568   16.9912 C   0  0  0  0  0  0  0  0  0  0  0  0
    1.0055   -4.4887   16.9064 N   0  0  0  0  0  0  0  0  0  0  0  0
    0.3912   -3.2252   16.5287 C   0  0  0  0  0  0  0  0  0  0  0  0
    0.6169   -2.1232   17.5774 C   0  0  0  0  0  0  0  0  0  0  0  0
    0.9337   -0.8693   16.7740 C   0  0  0  0  0  0  0  0  0  0  0  0
    1.6851   -1.4023   15.5667 C   0  0  0  0  0  0  0  0  0  0  0  0
    0.9075   -2.6582   15.1944 C   0  0  0  0  0  0  0  0  0  0  0  0
    0.2051   -5.5380   17.2367 N   0  0  0  0  0  0  0  0  0  0  0  0
   -3.2412   -9.7547   16.4445 H   0  0  0  0  0  0  0  0  0  0  0  0
   -4.3874  -10.6704   17.2558 H   0  0  0  0  0  0  0  0  0  0  0  0
   -3.8480   -9.0931   17.8253 H   0  0  0  0  0  0  0  0  0  0  0  0
   -2.9990  -10.8491   19.4013 H   0  0  0  0  0  0  0  0  0  0  0  0
   -1.8560  -12.4371   19.3054 H   0  0  0  0  0  0  0  0  0  0  0  0
   -2.4881  -12.3638   17.5438 H   0  0  0  0  0  0  0  0  0  0  0  0
   -2.0912  -14.4100   17.0176 H   0  0  0  0  0  0  0  0  0  0  0  0
   -4.3119  -16.5092   17.1530 H   0  0  0  0  0  0  0  0  0  0  0  0
   -5.3290  -18.8496   18.1002 H   0  0  0  0  0  0  0  0  0  0  0  0
   -3.6180  -19.6006   19.8071 H   0  0  0  0  0  0  0  0  0  0  0  0
   -2.3489   -8.6929   19.2764 H   0  0  0  0  0  0  0  0  0  0  0  0
   -1.4865   -9.4326   17.7685 H   0  0  0  0  0  0  0  0  0  0  0  0
   -1.2321   -7.1811   18.1595 H   0  0  0  0  0  0  0  0  0  0  0  0
    3.3197   -6.6151   17.6100 H   0  0  0  0  0  0  0  0  0  0  0  0
    3.0994   -4.0234   16.7633 H   0  0  0  0  0  0  0  0  0  0  0  0
   -0.6848   -3.4201   16.4278 H   0  0  0  0  0  0  0  0  0  0  0  0
    1.4570   -2.3571   18.2425 H   0  0  0  0  0  0  0  0  0  0  0  0
   -0.2655   -1.9808   18.2101 H   0  0  0  0  0  0  0  0  0  0  0  0
    1.5226   -0.1474   17.3469 H   0  0  0  0  0  0  0  0  0  0  0  0
    0.0053   -0.3795   16.4572 H   0  0  0  0  0  0  0  0  0  0  0  0
    1.7213   -0.6796   14.7465 H   0  0  0  0  0  0  0  0  0  0  0  0
    2.7146   -1.6591   15.8422 H   0  0  0  0  0  0  0  0  0  0  0  0
    1.5152   -3.3586   14.6128 H   0  0  0  0  0  0  0  0  0  0  0  0
    0.0504   -2.3750   14.5701 H   0  0  0  0  0  0  0  0  0  0  0  0
  1  2  1  0
  2  3  1  0
  3  4  1  0
  4  5  1  0
  5  6  2  0
  5  7  1  0
  7  8  1  0
  8  9  2  0
  9 10  1  0
 10 11  1  0
  2 12  1  0
 12 13  1  0
 13 14  1  0
 14 15  2  0
 14 16  1  0
 16 17  1  0
 17 18  2  0
 18 19  1  0
 19 20  1  0
 20 21  1  0
 21 22  1  0
 22 23  1  0
 23 24  1  0
 19 25  1  0
 11  7  2  0
 25 16  2  0
 24 20  1  0
  1 26  1  0
  1 27  1  0
  1 28  1  0
  2 29  1  0
  3 30  1  0
  3 31  1  0
  4 32  1  0
  8 33  1  0
  9 34  1  0
 10 35  1  0
 12 36  1  0
 12 37  1  0
 13 38  1  0
 17 39  1  0
 18 40  1  0
 20 41  1  0
 21 42  1  0
 21 43  1  0
 22 44  1  0
 22 45  1  0
 23 46  1  0
 23 47  1  0
 24 48  1  0
 24 49  1  0
M  END
>  <Energy>  (25) 
368.7751028264023

>  <compound_id>  (25) 
18703

>  <target_id>  (25) 
1

>  <reference_id>  (25) 
122

>  <inspiration_ids>  (25) 
[122, 96]

>  <energy_score>  (25) 
278.2532825142457

>  <distance_score>  (25) 
13.219886049630418

>  <path>  (25) 
/opt/xchem-fragalysis-2/maxwin/BulkDock/SCRATCH/511025/C18703-P122/C18703-P122.minimised.mol

>  <scratch_subdir>  (25) 
/opt/xchem-fragalysis-2/maxwin/BulkDock/SCRATCH/511025/C18703-P122

>  <fragmenstein_runtime>  (25) 
34.345911264419556

>  <fragmenstein_outcome>  (25) 
too moved

>  <fragmenstein_mode>  (25) 
expansion

>  <fragmenstein_error>  (25) 


$$$$
C18703-P96
     RDKit          3D

 49 51  0  0  0  0  0  0  0  0999 V2000
    2.3984  -12.4733   19.4117 C   0  0  0  0  0  0  0  0  0  0  0  0
    1.8341  -13.2558   17.8885 C   0  0  0  0  0  0  0  0  0  0  0  0
    0.6403  -14.5888   18.9704 C   0  0  0  0  0  0  0  0  0  0  0  0
   -0.6526  -15.7387   19.0103 N   0  0  0  0  0  0  0  0  0  0  0  0
   -2.1284  -15.5628   18.7761 C   0  0  0  0  0  0  0  0  0  0  0  0
   -2.7432  -14.5789   18.5950 O   0  0  0  0  0  0  0  0  0  0  0  0
   -3.0377  -16.7688   18.6183 C   0  0  0  0  0  0  0  0  0  0  0  0
   -2.9790  -18.1023   18.8244 C   0  0  0  0  0  0  0  0  0  0  0  0
   -4.2139  -18.7127   18.6923 C   0  0  0  0  0  0  0  0  0  0  0  0
   -4.9309  -17.7489   18.1073 N   0  0  0  0  0  0  0  0  0  0  0  0
   -4.1719  -16.6761   17.8758 N   0  0  0  0  0  0  0  0  0  0  0  0
    3.2058  -11.6944   17.5171 C   0  0  0  0  0  0  0  0  0  0  0  0
    4.8800  -10.8117   17.3485 N   0  0  0  0  0  0  0  0  0  0  0  0
    5.3691   -9.2489   16.4676 C   0  0  0  0  0  0  0  0  0  0  0  0
    4.5574   -8.5252   15.9459 O   0  0  0  0  0  0  0  0  0  0  0  0
    7.0740   -8.6397   16.0634 C   0  0  0  0  0  0  0  0  0  0  0  0
    8.1333   -7.1922   16.6679 C   0  0  0  0  0  0  0  0  0  0  0  0
    9.5881   -7.8920   16.5975 C   0  0  0  0  0  0  0  0  0  0  0  0
    9.7558   -8.9823   15.7687 N   0  0  0  0  0  0  0  0  0  0  0  0
   11.2643   -9.6318   16.0165 C   0  0  0  0  0  0  0  0  0  0  0  0
   11.9599   -9.5282   17.5711 C   0  0  0  0  0  0  0  0  0  0  0  0
   12.9432   -8.3723   17.6754 C   0  0  0  0  0  0  0  0  0  0  0  0
   13.4985   -8.2212   16.3013 C   0  0  0  0  0  0  0  0  0  0  0  0
   12.7149   -9.2224   15.4557 C   0  0  0  0  0  0  0  0  0  0  0  0
    8.2424   -9.5272   15.4181 N   0  0  0  0  0  0  0  0  0  0  0  0
    2.3044  -11.4206   19.6727 H   0  0  0  0  0  0  0  0  0  0  0  0
    1.7341  -13.2197   19.5198 H   0  0  0  0  0  0  0  0  0  0  0  0
    2.5269  -12.9074   20.4460 H   0  0  0  0  0  0  0  0  0  0  0  0
    2.2790  -13.9242   17.1153 H   0  0  0  0  0  0  0  0  0  0  0  0
    0.1627  -14.1279   19.8025 H   0  0  0  0  0  0  0  0  0  0  0  0
    0.2826  -14.9341   17.9910 H   0  0  0  0  0  0  0  0  0  0  0  0
   -0.4616  -16.7144   19.2134 H   0  0  0  0  0  0  0  0  0  0  0  0
   -2.0726  -18.5141   19.0829 H   0  0  0  0  0  0  0  0  0  0  0  0
   -4.5842  -19.7128   18.8704 H   0  0  0  0  0  0  0  0  0  0  0  0
   -5.8823  -17.7685   17.7520 H   0  0  0  0  0  0  0  0  0  0  0  0
    2.8213  -11.4778   16.5243 H   0  0  0  0  0  0  0  0  0  0  0  0
    3.1786  -11.0373   18.3444 H   0  0  0  0  0  0  0  0  0  0  0  0
    5.6556  -11.1931   17.7672 H   0  0  0  0  0  0  0  0  0  0  0  0
    8.0266   -6.3235   17.2388 H   0  0  0  0  0  0  0  0  0  0  0  0
   10.3596   -7.8720   17.3778 H   0  0  0  0  0  0  0  0  0  0  0  0
   11.0456  -10.6624   15.7203 H   0  0  0  0  0  0  0  0  0  0  0  0
   11.3261   -9.4074   18.4480 H   0  0  0  0  0  0  0  0  0  0  0  0
   12.5146  -10.4679   17.7201 H   0  0  0  0  0  0  0  0  0  0  0  0
   13.7249   -8.5862   18.4122 H   0  0  0  0  0  0  0  0  0  0  0  0
   12.4497   -7.4509   17.9993 H   0  0  0  0  0  0  0  0  0  0  0  0
   13.4359   -7.1862   15.9667 H   0  0  0  0  0  0  0  0  0  0  0  0
   14.5670   -8.4693   16.2812 H   0  0  0  0  0  0  0  0  0  0  0  0
   13.3475  -10.1188   15.5741 H   0  0  0  0  0  0  0  0  0  0  0  0
   12.8053   -8.9880   14.4174 H   0  0  0  0  0  0  0  0  0  0  0  0
  1  2  1  0
  2  3  1  0
  3  4  1  0
  4  5  1  0
  5  6  2  0
  5  7  1  0
  7  8  1  0
  8  9  2  0
  9 10  1  0
 10 11  1  0
  2 12  1  0
 12 13  1  0
 13 14  1  0
 14 15  2  0
 14 16  1  0
 16 17  1  0
 17 18  2  0
 18 19  1  0
 19 20  1  0
 20 21  1  0
 21 22  1  0
 22 23  1  0
 23 24  1  0
 19 25  1  0
 11  7  2  0
 25 16  2  0
 24 20  1  0
  1 26  1  0
  1 27  1  0
  1 28  1  0
  2 29  1  0
  3 30  1  0
  3 31  1  0
  4 32  1  0
  8 33  1  0
  9 34  1  0
 10 35  1  0
 12 36  1  0
 12 37  1  0
 13 38  1  0
 17 39  1  0
 18 40  1  0
 20 41  1  0
 21 42  1  0
 21 43  1  0
 22 44  1  0
 22 45  1  0
 23 46  1  0
 23 47  1  0
 24 48  1  0
 24 49  1  0
M  END
>  <Energy>  (26) 
1033.3139919384184

>  <compound_id>  (26) 
18703

>  <target_id>  (26) 
1

>  <reference_id>  (26) 
96

>  <inspiration_ids>  (26) 
[122, 96]

>  <energy_score>  (26) 
942.792171626242

>  <distance_score>  (26) 
11.62663179467648

>  <path>  (26) 
/opt/xchem-fragalysis-2/maxwin/BulkDock/SCRATCH/511025/C18703-P96/C18703-P96.minimised.mol

>  <scratch_subdir>  (26) 
/opt/xchem-fragalysis-2/maxwin/BulkDock/SCRATCH/511025/C18703-P96

>  <fragmenstein_runtime>  (26) 
22.527724266052246

>  <fragmenstein_outcome>  (26) 
too moved

>  <fragmenstein_mode>  (26) 
expansion

>  <fragmenstein_error>  (26) 


$$$$
C28372-P122
     RDKit          3D

 47 49  0  0  0  0  0  0  0  0999 V2000
   -2.2018  -18.0177   20.1758 C   0  0  0  0  0  0  0  0  0  0  0  0
   -1.0796  -18.3367   21.4529 N   0  0  0  0  0  0  0  0  0  0  0  0
    0.0309  -17.3269   20.9947 C   0  0  0  0  0  0  0  0  0  0  0  0
    0.8446  -15.8154   20.9519 C   0  0  0  0  0  0  0  0  0  0  0  0
    2.3419  -14.7798   20.3817 N   0  0  0  0  0  0  0  0  0  0  0  0
    3.3616  -13.5290   21.2579 C   0  0  0  0  0  0  0  0  0  0  0  0
    3.2307  -13.0243   22.4141 O   0  0  0  0  0  0  0  0  0  0  0  0
    4.6319  -12.9511   20.5055 C   0  0  0  0  0  0  0  0  0  0  0  0
    5.9689  -12.5557   20.7032 C   0  0  0  0  0  0  0  0  0  0  0  0
    6.4930  -11.6330   19.9706 N   0  0  0  0  0  0  0  0  0  0  0  0
    5.6650  -11.7567   19.0536 N   0  0  0  0  0  0  0  0  0  0  0  0
    4.6934  -12.7362   19.2069 C   0  0  0  0  0  0  0  0  0  0  0  0
   -1.4522  -19.4520   22.9961 C   0  0  0  0  0  0  0  0  0  0  0  0
   -1.0032  -20.6974   24.0343 C   0  0  0  0  0  0  0  0  0  0  0  0
    0.2721  -21.1912   24.4289 C   0  0  0  0  0  0  0  0  0  0  0  0
    0.0133  -22.1843   25.3398 C   0  0  0  0  0  0  0  0  0  0  0  0
   -1.3392  -22.2682   25.4117 N   0  0  0  0  0  0  0  0  0  0  0  0
   -2.0780  -23.4016   25.9267 C   0  0  0  0  0  0  0  0  0  0  0  0
   -2.9790  -23.9780   24.8412 C   0  0  0  0  0  0  0  0  0  0  0  0
   -4.2738  -23.1811   24.9520 C   0  0  0  0  0  0  0  0  0  0  0  0
   -4.2823  -22.5474   26.3490 C   0  0  0  0  0  0  0  0  0  0  0  0
   -3.0220  -23.0237   27.0557 C   0  0  0  0  0  0  0  0  0  0  0  0
   -1.9744  -21.2871   24.7477 N   0  0  0  0  0  0  0  0  0  0  0  0
   -2.7090  -18.9186   19.7913 H   0  0  0  0  0  0  0  0  0  0  0  0
   -2.9022  -17.2219   20.4404 H   0  0  0  0  0  0  0  0  0  0  0  0
   -1.6932  -17.6386   19.2881 H   0  0  0  0  0  0  0  0  0  0  0  0
   -0.8016  -16.6610   20.7776 H   0  0  0  0  0  0  0  0  0  0  0  0
    0.2372  -17.6356   19.9848 H   0  0  0  0  0  0  0  0  0  0  0  0
    0.4226  -15.3312   21.8425 H   0  0  0  0  0  0  0  0  0  0  0  0
    0.5193  -15.9378   19.9260 H   0  0  0  0  0  0  0  0  0  0  0  0
    2.7385  -14.9683   19.4637 H   0  0  0  0  0  0  0  0  0  0  0  0
    6.7385  -12.6884   21.3793 H   0  0  0  0  0  0  0  0  0  0  0  0
    5.5488  -10.8423   18.6716 H   0  0  0  0  0  0  0  0  0  0  0  0
    3.9138  -12.8752   18.4694 H   0  0  0  0  0  0  0  0  0  0  0  0
   -2.0883  -20.2521   22.6187 H   0  0  0  0  0  0  0  0  0  0  0  0
   -0.4181  -19.3029   23.3709 H   0  0  0  0  0  0  0  0  0  0  0  0
    1.2438  -20.8663   24.0762 H   0  0  0  0  0  0  0  0  0  0  0  0
    0.6711  -22.8610   25.8664 H   0  0  0  0  0  0  0  0  0  0  0  0
   -1.3447  -24.1440   26.2617 H   0  0  0  0  0  0  0  0  0  0  0  0
   -2.5529  -23.9156   23.8334 H   0  0  0  0  0  0  0  0  0  0  0  0
   -3.1498  -25.0336   25.0388 H   0  0  0  0  0  0  0  0  0  0  0  0
   -4.3053  -22.3966   24.1869 H   0  0  0  0  0  0  0  0  0  0  0  0
   -5.1480  -23.8081   24.7681 H   0  0  0  0  0  0  0  0  0  0  0  0
   -4.2662  -21.4549   26.2617 H   0  0  0  0  0  0  0  0  0  0  0  0
   -5.1786  -22.8039   26.9188 H   0  0  0  0  0  0  0  0  0  0  0  0
   -2.6177  -22.2574   27.7255 H   0  0  0  0  0  0  0  0  0  0  0  0
   -3.2419  -23.9076   27.6627 H   0  0  0  0  0  0  0  0  0  0  0  0
  1  2  1  0
  2  3  1  0
  3  4  1  0
  4  5  1  0
  5  6  1  0
  6  7  2  0
  6  8  1  0
  8  9  1  0
  9 10  2  0
 10 11  1  0
 11 12  1  0
  2 13  1  0
 13 14  1  0
 14 15  1  0
 15 16  2  0
 16 17  1  0
 17 18  1  0
 18 19  1  0
 19 20  1  0
 20 21  1  0
 21 22  1  0
 17 23  1  0
 12  8  2  0
 23 14  2  0
 22 18  1  0
  1 24  1  0
  1 25  1  0
  1 26  1  0
  3 27  1  0
  3 28  1  0
  4 29  1  0
  4 30  1  0
  5 31  1  0
  9 32  1  0
 11 33  1  0
 12 34  1  0
 13 35  1  0
 13 36  1  0
 15 37  1  0
 16 38  1  0
 18 39  1  0
 19 40  1  0
 19 41  1  0
 20 42  1  0
 20 43  1  0
 21 44  1  0
 21 45  1  0
 22 46  1  0
 22 47  1  0
M  END
>  <Energy>  (27) 
588.3391472062217

>  <compound_id>  (27) 
28372

>  <target_id>  (27) 
1

>  <reference_id>  (27) 
122

>  <inspiration_ids>  (27) 
[122, 96]

>  <energy_score>  (27) 
507.7713628633353

>  <distance_score>  (27) 
11.904347089458042

>  <path>  (27) 
/opt/xchem-fragalysis-2/maxwin/BulkDock/SCRATCH/511025/C28372-P122/C28372-P122.minimised.mol

>  <scratch_subdir>  (27) 
/opt/xchem-fragalysis-2/maxwin/BulkDock/SCRATCH/511025/C28372-P122

>  <fragmenstein_runtime>  (27) 
53.781583070755005

>  <fragmenstein_outcome>  (27) 
too moved

>  <fragmenstein_mode>  (27) 
expansion

>  <fragmenstein_error>  (27) 


$$$$
C28372-P96
     RDKit          3D

 47 49  0  0  0  0  0  0  0  0999 V2000
   -0.6134  -15.5641   18.8182 C   0  0  0  0  0  0  0  0  0  0  0  0
    0.0518  -14.9481   19.8350 N   0  0  0  0  0  0  0  0  0  0  0  0
    1.5022  -13.6184   18.9471 C   0  0  0  0  0  0  0  0  0  0  0  0
    2.9016  -11.9404   18.4896 C   0  0  0  0  0  0  0  0  0  0  0  0
    4.6958  -11.0051   18.1891 N   0  0  0  0  0  0  0  0  0  0  0  0
    5.2442   -9.5783   17.0107 C   0  0  0  0  0  0  0  0  0  0  0  0
    4.3975   -9.2836   16.3153 O   0  0  0  0  0  0  0  0  0  0  0  0
    6.8303   -8.5239   16.5381 C   0  0  0  0  0  0  0  0  0  0  0  0
    7.7595   -6.8628   16.5535 C   0  0  0  0  0  0  0  0  0  0  0  0
    9.2660   -6.7684   17.0064 N   0  0  0  0  0  0  0  0  0  0  0  0
    9.5803   -8.0706   16.4612 N   0  0  0  0  0  0  0  0  0  0  0  0
    8.0783   -7.2612   16.9927 C   0  0  0  0  0  0  0  0  0  0  0  0
   -0.5920  -16.7945   20.6392 C   0  0  0  0  0  0  0  0  0  0  0  0
   -1.1437  -18.2864   22.0618 C   0  0  0  0  0  0  0  0  0  0  0  0
   -2.2396  -19.1360   23.3415 C   0  0  0  0  0  0  0  0  0  0  0  0
   -2.0890  -20.4728   23.7012 C   0  0  0  0  0  0  0  0  0  0  0  0
   -1.3400  -20.7055   22.6420 N   0  0  0  0  0  0  0  0  0  0  0  0
   -1.0055  -22.0595   22.2142 C   0  0  0  0  0  0  0  0  0  0  0  0
   -2.1025  -22.7584   21.3968 C   0  0  0  0  0  0  0  0  0  0  0  0
   -1.8235  -24.2573   21.5256 C   0  0  0  0  0  0  0  0  0  0  0  0
   -0.7275  -24.4030   22.5774 C   0  0  0  0  0  0  0  0  0  0  0  0
   -0.7353  -23.0814   23.3309 C   0  0  0  0  0  0  0  0  0  0  0  0
   -1.8332  -19.7342   21.7809 N   0  0  0  0  0  0  0  0  0  0  0  0
   -0.0095  -15.1348   18.0847 H   0  0  0  0  0  0  0  0  0  0  0  0
   -1.7011  -15.3718   18.7746 H   0  0  0  0  0  0  0  0  0  0  0  0
   -0.4130  -16.6255   18.6181 H   0  0  0  0  0  0  0  0  0  0  0  0
    1.6005  -13.9098   17.8924 H   0  0  0  0  0  0  0  0  0  0  0  0
    2.1050  -13.2878   19.8087 H   0  0  0  0  0  0  0  0  0  0  0  0
    2.6727  -11.2612   19.2886 H   0  0  0  0  0  0  0  0  0  0  0  0
    2.9327  -11.9552   17.3828 H   0  0  0  0  0  0  0  0  0  0  0  0
    5.4343  -11.1714   18.8295 H   0  0  0  0  0  0  0  0  0  0  0  0
    7.6114   -5.7142   16.6102 H   0  0  0  0  0  0  0  0  0  0  0  0
   10.3914   -8.4352   16.9615 H   0  0  0  0  0  0  0  0  0  0  0  0
    8.3350   -6.8054   18.2839 H   0  0  0  0  0  0  0  0  0  0  0  0
    0.2273  -17.3577   20.2369 H   0  0  0  0  0  0  0  0  0  0  0  0
   -1.5106  -16.9675   20.0478 H   0  0  0  0  0  0  0  0  0  0  0  0
   -2.7093  -18.7288   24.2571 H   0  0  0  0  0  0  0  0  0  0  0  0
   -2.4223  -21.1094   24.5043 H   0  0  0  0  0  0  0  0  0  0  0  0
   -0.0845  -21.9906   21.6244 H   0  0  0  0  0  0  0  0  0  0  0  0
   -2.1042  -22.4406   20.3498 H   0  0  0  0  0  0  0  0  0  0  0  0
   -3.0991  -22.5373   21.7994 H   0  0  0  0  0  0  0  0  0  0  0  0
   -2.7335  -24.7834   21.8354 H   0  0  0  0  0  0  0  0  0  0  0  0
   -1.5044  -24.6892   20.5712 H   0  0  0  0  0  0  0  0  0  0  0  0
    0.2419  -24.5474   22.0855 H   0  0  0  0  0  0  0  0  0  0  0  0
   -0.8983  -25.2587   23.2374 H   0  0  0  0  0  0  0  0  0  0  0  0
    0.2075  -22.8992   23.8540 H   0  0  0  0  0  0  0  0  0  0  0  0
   -1.5348  -23.1025   24.0798 H   0  0  0  0  0  0  0  0  0  0  0  0
  1  2  1  0
  2  3  1  0
  3  4  1  0
  4  5  1  0
  5  6  1  0
  6  7  2  0
  6  8  1  0
  8  9  1  0
  9 10  2  0
 10 11  1  0
 11 12  1  0
  2 13  1  0
 13 14  1  0
 14 15  1  0
 15 16  2  0
 16 17  1  0
 17 18  1  0
 18 19  1  0
 19 20  1  0
 20 21  1  0
 21 22  1  0
 17 23  1  0
 12  8  2  0
 23 14  2  0
 22 18  1  0
  1 24  1  0
  1 25  1  0
  1 26  1  0
  3 27  1  0
  3 28  1  0
  4 29  1  0
  4 30  1  0
  5 31  1  0
  9 32  1  0
 11 33  1  0
 12 34  1  0
 13 35  1  0
 13 36  1  0
 15 37  1  0
 16 38  1  0
 18 39  1  0
 19 40  1  0
 19 41  1  0
 20 42  1  0
 20 43  1  0
 21 44  1  0
 21 45  1  0
 22 46  1  0
 22 47  1  0
M  END
>  <Energy>  (28) 
2135.0203148913688

>  <compound_id>  (28) 
28372

>  <target_id>  (28) 
1

>  <reference_id>  (28) 
96

>  <inspiration_ids>  (28) 
[122, 96]

>  <energy_score>  (28) 
2054.4525305484926

>  <distance_score>  (28) 
10.131377886668563

>  <path>  (28) 
/opt/xchem-fragalysis-2/maxwin/BulkDock/SCRATCH/511025/C28372-P96/C28372-P96.minimised.mol

>  <scratch_subdir>  (28) 
/opt/xchem-fragalysis-2/maxwin/BulkDock/SCRATCH/511025/C28372-P96

>  <fragmenstein_runtime>  (28) 
27.481621265411377

>  <fragmenstein_outcome>  (28) 
too moved

>  <fragmenstein_mode>  (28) 
expansion

>  <fragmenstein_error>  (28) 


$$$$
C18704-P122
     RDKit          3D

 47 49  0  0  0  0  0  0  0  0999 V2000
    3.6841  -13.4728   18.4262 C   0  0  0  0  0  0  0  0  0  0  0  0
    4.5317  -14.6126   18.3007 N   0  0  0  0  0  0  0  0  0  0  0  0
    2.9263  -15.6479   18.0798 C   0  0  0  0  0  0  0  0  0  0  0  0
    2.0644  -17.4262   17.3631 C   0  0  0  0  0  0  0  0  0  0  0  0
    1.1449  -18.4313   18.1061 N   0  0  0  0  0  0  0  0  0  0  0  0
    1.0023  -19.8596   17.9718 C   0  0  0  0  0  0  0  0  0  0  0  0
    1.6131  -20.6467   17.3078 O   0  0  0  0  0  0  0  0  0  0  0  0
   -0.1847  -20.3569   18.7722 C   0  0  0  0  0  0  0  0  0  0  0  0
   -0.3598  -21.6508   19.3602 C   0  0  0  0  0  0  0  0  0  0  0  0
   -1.6316  -21.6720   19.8840 C   0  0  0  0  0  0  0  0  0  0  0  0
   -2.1728  -20.4711   19.5487 N   0  0  0  0  0  0  0  0  0  0  0  0
   -1.2971  -19.6108   18.9843 N   0  0  0  0  0  0  0  0  0  0  0  0
    5.7252  -13.6043   19.5043 C   0  0  0  0  0  0  0  0  0  0  0  0
    7.3523  -12.5515   19.5560 C   0  0  0  0  0  0  0  0  0  0  0  0
    7.3277  -11.3122   18.8395 C   0  0  0  0  0  0  0  0  0  0  0  0
    8.4429  -11.0546   18.0401 C   0  0  0  0  0  0  0  0  0  0  0  0
    9.5018  -11.8223   18.4078 N   0  0  0  0  0  0  0  0  0  0  0  0
   11.1414  -11.0966   18.1933 C   0  0  0  0  0  0  0  0  0  0  0  0
   12.0806  -12.1300   17.7596 C   0  0  0  0  0  0  0  0  0  0  0  0
   13.6827  -11.8138   18.4263 C   0  0  0  0  0  0  0  0  0  0  0  0
   13.8163  -10.7767   19.4543 C   0  0  0  0  0  0  0  0  0  0  0  0
   12.3634  -10.6381   19.6728 C   0  0  0  0  0  0  0  0  0  0  0  0
    8.7870  -12.9130   19.4412 N   0  0  0  0  0  0  0  0  0  0  0  0
    3.8223  -13.2741   19.4739 H   0  0  0  0  0  0  0  0  0  0  0  0
    3.8279  -12.4970   17.9436 H   0  0  0  0  0  0  0  0  0  0  0  0
    2.6599  -13.6782   18.1609 H   0  0  0  0  0  0  0  0  0  0  0  0
    2.2208  -15.1716   18.7287 H   0  0  0  0  0  0  0  0  0  0  0  0
    2.7088  -15.2405   17.1029 H   0  0  0  0  0  0  0  0  0  0  0  0
    2.5974  -18.1556   16.6878 H   0  0  0  0  0  0  0  0  0  0  0  0
    1.6598  -17.1612   16.4226 H   0  0  0  0  0  0  0  0  0  0  0  0
    0.4019  -18.0818   18.6939 H   0  0  0  0  0  0  0  0  0  0  0  0
    0.3652  -22.4534   19.3622 H   0  0  0  0  0  0  0  0  0  0  0  0
   -2.1973  -22.4365   20.3963 H   0  0  0  0  0  0  0  0  0  0  0  0
   -3.1269  -20.1568   19.6923 H   0  0  0  0  0  0  0  0  0  0  0  0
    5.3782  -12.5993   19.2159 H   0  0  0  0  0  0  0  0  0  0  0  0
    5.2639  -13.4183   20.4843 H   0  0  0  0  0  0  0  0  0  0  0  0
    6.3797  -10.8514   18.7278 H   0  0  0  0  0  0  0  0  0  0  0  0
    8.6260  -10.3894   17.2244 H   0  0  0  0  0  0  0  0  0  0  0  0
   10.9703  -10.4461   17.3427 H   0  0  0  0  0  0  0  0  0  0  0  0
   11.8063  -13.1760   17.9559 H   0  0  0  0  0  0  0  0  0  0  0  0
   11.9569  -11.9874   16.6838 H   0  0  0  0  0  0  0  0  0  0  0  0
   14.4057  -11.4991   17.6603 H   0  0  0  0  0  0  0  0  0  0  0  0
   14.0306  -12.7667   18.8615 H   0  0  0  0  0  0  0  0  0  0  0  0
   14.3578  -11.1678   20.3300 H   0  0  0  0  0  0  0  0  0  0  0  0
   14.4126   -9.9107   19.1765 H   0  0  0  0  0  0  0  0  0  0  0  0
   12.4892  -11.4322   20.4426 H   0  0  0  0  0  0  0  0  0  0  0  0
   11.9443  -10.0141   20.4735 H   0  0  0  0  0  0  0  0  0  0  0  0
  1  2  1  0
  2  3  1  0
  3  4  1  0
  4  5  1  0
  5  6  1  0
  6  7  2  0
  6  8  1  0
  8  9  1  0
  9 10  2  0
 10 11  1  0
 11 12  1  0
  2 13  1  0
 13 14  1  0
 14 15  1  0
 15 16  2  0
 16 17  1  0
 17 18  1  0
 18 19  1  0
 19 20  1  0
 20 21  1  0
 21 22  1  0
 17 23  1  0
 12  8  2  0
 23 14  2  0
 22 18  1  0
  1 24  1  0
  1 25  1  0
  1 26  1  0
  3 27  1  0
  3 28  1  0
  4 29  1  0
  4 30  1  0
  5 31  1  0
  9 32  1  0
 10 33  1  0
 11 34  1  0
 13 35  1  0
 13 36  1  0
 15 37  1  0
 16 38  1  0
 18 39  1  0
 19 40  1  0
 19 41  1  0
 20 42  1  0
 20 43  1  0
 21 44  1  0
 21 45  1  0
 22 46  1  0
 22 47  1  0
M  END
>  <Energy>  (29) 
771.88714792724886

>  <compound_id>  (29) 
18704

>  <target_id>  (29) 
1

>  <reference_id>  (29) 
122

>  <inspiration_ids>  (29) 
[122, 96]

>  <energy_score>  (29) 
662.4582320000967

>  <distance_score>  (29) 
12.967226819746255

>  <path>  (29) 
/opt/xchem-fragalysis-2/maxwin/BulkDock/SCRATCH/511025/C18704-P122/C18704-P122.minimised.mol

>  <scratch_subdir>  (29) 
/opt/xchem-fragalysis-2/maxwin/BulkDock/SCRATCH/511025/C18704-P122

>  <fragmenstein_runtime>  (29) 
28.941025257110596

>  <fragmenstein_outcome>  (29) 
too moved

>  <fragmenstein_mode>  (29) 
expansion

>  <fragmenstein_error>  (29) 


$$$$
C18704-P96
     RDKit          3D

 47 49  0  0  0  0  0  0  0  0999 V2000
   -3.0577   -6.8690   15.9087 C   0  0  0  0  0  0  0  0  0  0  0  0
   -2.1876   -7.9975   15.5572 N   0  0  0  0  0  0  0  0  0  0  0  0
   -3.0752   -9.5095   16.2388 C   0  0  0  0  0  0  0  0  0  0  0  0
   -3.0184  -11.3965   16.8236 C   0  0  0  0  0  0  0  0  0  0  0  0
   -2.8620  -13.2398   16.7604 N   0  0  0  0  0  0  0  0  0  0  0  0
   -2.7650  -14.4854   18.1094 C   0  0  0  0  0  0  0  0  0  0  0  0
   -2.7097  -14.1592   19.2509 O   0  0  0  0  0  0  0  0  0  0  0  0
   -2.8787  -16.0386   18.0223 C   0  0  0  0  0  0  0  0  0  0  0  0
   -2.0976  -17.0105   18.7749 C   0  0  0  0  0  0  0  0  0  0  0  0
   -2.6529  -18.2508   18.5555 C   0  0  0  0  0  0  0  0  0  0  0  0
   -3.8502  -17.9952   17.9790 N   0  0  0  0  0  0  0  0  0  0  0  0
   -3.9749  -16.7155   17.5756 N   0  0  0  0  0  0  0  0  0  0  0  0
   -0.5402   -7.4052   15.9162 C   0  0  0  0  0  0  0  0  0  0  0  0
    0.5957   -5.9668   15.4627 C   0  0  0  0  0  0  0  0  0  0  0  0
    0.4827   -4.5808   15.8740 C   0  0  0  0  0  0  0  0  0  0  0  0
    1.7566   -3.9765   15.9766 C   0  0  0  0  0  0  0  0  0  0  0  0
    2.7688   -4.9262   15.7256 N   0  0  0  0  0  0  0  0  0  0  0  0
    4.3062   -4.8106   16.4344 C   0  0  0  0  0  0  0  0  0  0  0  0
    5.3467   -4.9439   15.4527 C   0  0  0  0  0  0  0  0  0  0  0  0
    7.4590   -4.6088   15.9556 C   0  0  0  0  0  0  0  0  0  0  0  0
    7.4585   -6.1592   16.8071 C   0  0  0  0  0  0  0  0  0  0  0  0
    5.3543   -5.8543   17.0605 C   0  0  0  0  0  0  0  0  0  0  0  0
    2.0032   -6.0929   15.2206 N   0  0  0  0  0  0  0  0  0  0  0  0
   -2.7222   -5.9575   15.4040 H   0  0  0  0  0  0  0  0  0  0  0  0
   -4.0830   -7.0587   15.5767 H   0  0  0  0  0  0  0  0  0  0  0  0
   -3.0632   -6.6921   16.9885 H   0  0  0  0  0  0  0  0  0  0  0  0
   -3.9774   -9.4845   15.6154 H   0  0  0  0  0  0  0  0  0  0  0  0
   -3.3684   -9.0624   17.2021 H   0  0  0  0  0  0  0  0  0  0  0  0
   -2.0409  -11.4639   16.4537 H   0  0  0  0  0  0  0  0  0  0  0  0
   -3.0406  -11.2551   17.9111 H   0  0  0  0  0  0  0  0  0  0  0  0
   -2.9857  -13.7239   15.8720 H   0  0  0  0  0  0  0  0  0  0  0  0
   -1.2044  -16.7961   19.3482 H   0  0  0  0  0  0  0  0  0  0  0  0
   -2.3576  -19.2460   18.8581 H   0  0  0  0  0  0  0  0  0  0  0  0
   -4.5904  -18.6502   17.7440 H   0  0  0  0  0  0  0  0  0  0  0  0
   -0.6556   -7.2585   16.9968 H   0  0  0  0  0  0  0  0  0  0  0  0
    0.1021   -8.2405   15.6422 H   0  0  0  0  0  0  0  0  0  0  0  0
   -0.4327   -4.1098   16.2044 H   0  0  0  0  0  0  0  0  0  0  0  0
    2.0378   -2.9994   16.3412 H   0  0  0  0  0  0  0  0  0  0  0  0
    4.2512   -3.8449   16.9471 H   0  0  0  0  0  0  0  0  0  0  0  0
    5.0684   -5.6268   14.6684 H   0  0  0  0  0  0  0  0  0  0  0  0
    4.8600   -4.1344   14.8297 H   0  0  0  0  0  0  0  0  0  0  0  0
    7.6315   -3.6497   16.5228 H   0  0  0  0  0  0  0  0  0  0  0  0
    8.2334   -4.2152   15.2757 H   0  0  0  0  0  0  0  0  0  0  0  0
    7.4658   -7.1581   16.3091 H   0  0  0  0  0  0  0  0  0  0  0  0
    8.3229   -6.2507   17.4998 H   0  0  0  0  0  0  0  0  0  0  0  0
    5.1119   -5.5246   18.0947 H   0  0  0  0  0  0  0  0  0  0  0  0
    4.6598   -6.5674   16.8075 H   0  0  0  0  0  0  0  0  0  0  0  0
  1  2  1  0
  2  3  1  0
  3  4  1  0
  4  5  1  0
  5  6  1  0
  6  7  2  0
  6  8  1  0
  8  9  1  0
  9 10  2  0
 10 11  1  0
 11 12  1  0
  2 13  1  0
 13 14  1  0
 14 15  1  0
 15 16  2  0
 16 17  1  0
 17 18  1  0
 18 19  1  0
 19 20  1  0
 20 21  1  0
 21 22  1  0
 17 23  1  0
 12  8  2  0
 23 14  2  0
 22 18  1  0
  1 24  1  0
  1 25  1  0
  1 26  1  0
  3 27  1  0
  3 28  1  0
  4 29  1  0
  4 30  1  0
  5 31  1  0
  9 32  1  0
 10 33  1  0
 11 34  1  0
 13 35  1  0
 13 36  1  0
 15 37  1  0
 16 38  1  0
 18 39  1  0
 19 40  1  0
 19 41  1  0
 20 42  1  0
 20 43  1  0
 21 44  1  0
 21 45  1  0
 22 46  1  0
 22 47  1  0
M  END
>  <Energy>  (30) 
901.87978015237775

>  <compound_id>  (30) 
18704

>  <target_id>  (30) 
1

>  <reference_id>  (30) 
96

>  <inspiration_ids>  (30) 
[122, 96]

>  <energy_score>  (30) 
792.4508642252201

>  <distance_score>  (30) 
13.55809565157735

>  <path>  (30) 
/opt/xchem-fragalysis-2/maxwin/BulkDock/SCRATCH/511025/C18704-P96/C18704-P96.minimised.mol

>  <scratch_subdir>  (30) 
/opt/xchem-fragalysis-2/maxwin/BulkDock/SCRATCH/511025/C18704-P96

>  <fragmenstein_runtime>  (30) 
27.809016942977905

>  <fragmenstein_outcome>  (30) 
too moved

>  <fragmenstein_mode>  (30) 
expansion

>  <fragmenstein_error>  (30) 


$$$$
C28373-P122
     RDKit          3D

 49 51  0  0  0  0  0  0  0  0999 V2000
    0.9763  -14.3007   23.7089 C   0  0  0  0  0  0  0  0  0  0  0  0
   -0.1104  -14.9182   22.2932 C   0  0  0  0  0  0  0  0  0  0  0  0
   -1.4946  -15.3986   23.9832 C   0  0  0  0  0  0  0  0  0  0  0  0
   -3.3054  -15.9316   24.9100 N   0  0  0  0  0  0  0  0  0  0  0  0
   -2.9381  -14.6160   25.2385 C   0  0  0  0  0  0  0  0  0  0  0  0
   -3.7467  -17.4186   26.0244 C   0  0  0  0  0  0  0  0  0  0  0  0
   -3.5756  -17.1781   27.1680 O   0  0  0  0  0  0  0  0  0  0  0  0
   -4.5810  -19.1358   25.8740 C   0  0  0  0  0  0  0  0  0  0  0  0
   -3.8568  -20.1621   25.2751 C   0  0  0  0  0  0  0  0  0  0  0  0
   -3.9537  -21.3082   26.0933 C   0  0  0  0  0  0  0  0  0  0  0  0
   -4.7377  -21.2619   27.1618 N   0  0  0  0  0  0  0  0  0  0  0  0
   -5.7000  -20.1917   26.9687 N   0  0  0  0  0  0  0  0  0  0  0  0
   -7.5139  -21.0487   27.4053 C   0  0  0  0  0  0  0  0  0  0  0  0
   -7.3978  -22.5936   27.5271 C   0  0  0  0  0  0  0  0  0  0  0  0
   -8.9190  -23.4851   27.8550 C   0  0  0  0  0  0  0  0  0  0  0  0
  -10.1586  -22.6763   28.0671 C   0  0  0  0  0  0  0  0  0  0  0  0
   -9.6015  -21.1815   27.8857 C   0  0  0  0  0  0  0  0  0  0  0  0
    1.7268  -14.8299   21.2247 N   0  0  0  0  0  0  0  0  0  0  0  0
    3.2596  -13.5823   21.4213 C   0  0  0  0  0  0  0  0  0  0  0  0
    3.2392  -12.7839   22.3515 O   0  0  0  0  0  0  0  0  0  0  0  0
    4.6041  -13.2329   20.4527 C   0  0  0  0  0  0  0  0  0  0  0  0
    4.5456  -12.9050   19.1780 C   0  0  0  0  0  0  0  0  0  0  0  0
    5.5008  -12.0216   18.8248 N   0  0  0  0  0  0  0  0  0  0  0  0
    6.0897  -11.6499   19.8529 N   0  0  0  0  0  0  0  0  0  0  0  0
    5.8699  -12.6608   20.6588 C   0  0  0  0  0  0  0  0  0  0  0  0
    1.8661  -14.8620   23.3766 H   0  0  0  0  0  0  0  0  0  0  0  0
    1.6610  -13.4098   24.0466 H   0  0  0  0  0  0  0  0  0  0  0  0
    0.4788  -14.3779   24.6172 H   0  0  0  0  0  0  0  0  0  0  0  0
   -0.1904  -15.9556   21.8651 H   0  0  0  0  0  0  0  0  0  0  0  0
   -1.1288  -14.6040   24.5848 H   0  0  0  0  0  0  0  0  0  0  0  0
   -2.2624  -15.0658   23.3137 H   0  0  0  0  0  0  0  0  0  0  0  0
   -2.1437  -14.3671   25.9359 H   0  0  0  0  0  0  0  0  0  0  0  0
   -3.6217  -13.8605   24.8216 H   0  0  0  0  0  0  0  0  0  0  0  0
   -3.5939  -14.6067   26.1422 H   0  0  0  0  0  0  0  0  0  0  0  0
   -3.1094  -20.0261   24.5079 H   0  0  0  0  0  0  0  0  0  0  0  0
   -3.3602  -22.2062   25.9694 H   0  0  0  0  0  0  0  0  0  0  0  0
   -7.5771  -20.1712   27.9377 H   0  0  0  0  0  0  0  0  0  0  0  0
   -7.1370  -22.9419   26.5253 H   0  0  0  0  0  0  0  0  0  0  0  0
   -6.5262  -22.9474   28.0515 H   0  0  0  0  0  0  0  0  0  0  0  0
   -8.8410  -24.2725   28.6163 H   0  0  0  0  0  0  0  0  0  0  0  0
   -9.1814  -24.0481   26.9541 H   0  0  0  0  0  0  0  0  0  0  0  0
  -10.7513  -22.8289   28.9786 H   0  0  0  0  0  0  0  0  0  0  0  0
  -10.9152  -22.9197   27.3010 H   0  0  0  0  0  0  0  0  0  0  0  0
  -10.3162  -21.0201   27.0710 H   0  0  0  0  0  0  0  0  0  0  0  0
  -10.0552  -20.8617   28.8755 H   0  0  0  0  0  0  0  0  0  0  0  0
    1.8485  -15.3507   20.3824 H   0  0  0  0  0  0  0  0  0  0  0  0
    3.8105  -13.2016   18.4462 H   0  0  0  0  0  0  0  0  0  0  0  0
    6.7875  -10.9272   19.7512 H   0  0  0  0  0  0  0  0  0  0  0  0
    6.6869  -12.6770   21.3061 H   0  0  0  0  0  0  0  0  0  0  0  0
  1  2  1  0
  2  3  1  0
  3  4  1  0
  4  5  1  0
  4  6  1  0
  6  7  2  0
  6  8  1  0
  8  9  2  0
  9 10  1  0
 10 11  2  0
 11 12  1  0
 12 13  1  0
 13 14  1  0
 14 15  1  0
 15 16  1  0
 16 17  1  0
  2 18  1  0
 18 19  1  0
 19 20  2  0
 19 21  1  0
 21 22  1  0
 22 23  2  0
 23 24  1  0
 24 25  1  0
 12  8  1  0
 17 13  1  0
 25 21  2  0
  1 26  1  0
  1 27  1  0
  1 28  1  0
  2 29  1  0
  3 30  1  0
  3 31  1  0
  5 32  1  0
  5 33  1  0
  5 34  1  0
  9 35  1  0
 10 36  1  0
 13 37  1  0
 14 38  1  0
 14 39  1  0
 15 40  1  0
 15 41  1  0
 16 42  1  0
 16 43  1  0
 17 44  1  0
 17 45  1  0
 18 46  1  0
 22 47  1  0
 24 48  1  0
 25 49  1  0
M  END
>  <Energy>  (31) 
1568.1210699262042

>  <compound_id>  (31) 
28373

>  <target_id>  (31) 
1

>  <reference_id>  (31) 
122

>  <inspiration_ids>  (31) 
[122, 96]

>  <energy_score>  (31) 
1538.5578403779296

>  <distance_score>  (31) 
10.898370646264548

>  <path>  (31) 
/opt/xchem-fragalysis-2/maxwin/BulkDock/SCRATCH/511025/C28373-P122/C28373-P122.minimised.mol

>  <scratch_subdir>  (31) 
/opt/xchem-fragalysis-2/maxwin/BulkDock/SCRATCH/511025/C28373-P122

>  <fragmenstein_runtime>  (31) 
38.50165557861328

>  <fragmenstein_outcome>  (31) 
too moved

>  <fragmenstein_mode>  (31) 
expansion

>  <fragmenstein_error>  (31) 


$$$$
C28373-P96
     RDKit          3D

 49 51  0  0  0  0  0  0  0  0999 V2000
   -3.2484  -12.9923   26.0435 C   0  0  0  0  0  0  0  0  0  0  0  0
   -2.7754  -13.5891   24.7400 C   0  0  0  0  0  0  0  0  0  0  0  0
   -2.9656  -15.4555   25.5902 C   0  0  0  0  0  0  0  0  0  0  0  0
   -3.6847  -16.2936   27.1374 N   0  0  0  0  0  0  0  0  0  0  0  0
   -2.8071  -15.2628   27.6787 C   0  0  0  0  0  0  0  0  0  0  0  0
   -3.6020  -18.0522   27.2525 C   0  0  0  0  0  0  0  0  0  0  0  0
   -2.6640  -18.6000   27.7656 O   0  0  0  0  0  0  0  0  0  0  0  0
   -4.8618  -19.2829   26.8218 C   0  0  0  0  0  0  0  0  0  0  0  0
   -4.1672  -20.0359   25.8296 C   0  0  0  0  0  0  0  0  0  0  0  0
   -4.1810  -21.3627   26.2104 C   0  0  0  0  0  0  0  0  0  0  0  0
   -4.9301  -21.6529   27.2520 N   0  0  0  0  0  0  0  0  0  0  0  0
   -5.8200  -20.7013   27.5177 N   0  0  0  0  0  0  0  0  0  0  0  0
   -7.5181  -21.3420   28.0121 C   0  0  0  0  0  0  0  0  0  0  0  0
   -8.2160  -22.8767   28.9714 C   0  0  0  0  0  0  0  0  0  0  0  0
   -9.5161  -23.2625   28.2837 C   0  0  0  0  0  0  0  0  0  0  0  0
  -10.3263  -22.0106   28.3052 C   0  0  0  0  0  0  0  0  0  0  0  0
   -9.3380  -20.8317   28.3878 C   0  0  0  0  0  0  0  0  0  0  0  0
   -1.4799  -12.8314   23.4051 N   0  0  0  0  0  0  0  0  0  0  0  0
    0.1762  -11.9236   23.6645 C   0  0  0  0  0  0  0  0  0  0  0  0
    0.6185  -11.6081   24.7200 O   0  0  0  0  0  0  0  0  0  0  0  0
    1.2129  -11.3795   22.4242 C   0  0  0  0  0  0  0  0  0  0  0  0
    1.0192  -10.3847   21.5353 C   0  0  0  0  0  0  0  0  0  0  0  0
    1.9923  -10.0567   20.7297 N   0  0  0  0  0  0  0  0  0  0  0  0
    2.4155  -11.2225   20.6440 N   0  0  0  0  0  0  0  0  0  0  0  0
    2.3109  -11.9336   21.8267 C   0  0  0  0  0  0  0  0  0  0  0  0
   -2.4355  -12.9154   26.7639 H   0  0  0  0  0  0  0  0  0  0  0  0
   -3.9203  -12.1475   26.0979 H   0  0  0  0  0  0  0  0  0  0  0  0
   -3.9840  -13.6648   26.4823 H   0  0  0  0  0  0  0  0  0  0  0  0
   -3.2177  -14.1140   23.8893 H   0  0  0  0  0  0  0  0  0  0  0  0
   -2.4339  -16.2333   25.0437 H   0  0  0  0  0  0  0  0  0  0  0  0
   -4.0116  -15.3916   25.3125 H   0  0  0  0  0  0  0  0  0  0  0  0
   -3.3559  -14.3978   28.0482 H   0  0  0  0  0  0  0  0  0  0  0  0
   -1.7962  -15.1229   27.2767 H   0  0  0  0  0  0  0  0  0  0  0  0
   -2.5288  -15.7188   28.6443 H   0  0  0  0  0  0  0  0  0  0  0  0
   -3.4714  -19.6131   25.1179 H   0  0  0  0  0  0  0  0  0  0  0  0
   -3.5792  -22.1510   25.7767 H   0  0  0  0  0  0  0  0  0  0  0  0
   -7.4819  -21.7951   27.0285 H   0  0  0  0  0  0  0  0  0  0  0  0
   -8.4998  -22.7591   30.0191 H   0  0  0  0  0  0  0  0  0  0  0  0
   -7.5820  -23.7572   29.1746 H   0  0  0  0  0  0  0  0  0  0  0  0
   -9.3692  -23.5692   27.2526 H   0  0  0  0  0  0  0  0  0  0  0  0
  -10.0238  -24.0815   28.8032 H   0  0  0  0  0  0  0  0  0  0  0  0
  -10.9871  -21.9963   29.1806 H   0  0  0  0  0  0  0  0  0  0  0  0
  -10.9709  -21.9476   27.4245 H   0  0  0  0  0  0  0  0  0  0  0  0
   -9.6921  -20.0849   27.7233 H   0  0  0  0  0  0  0  0  0  0  0  0
   -9.6427  -20.2948   29.2968 H   0  0  0  0  0  0  0  0  0  0  0  0
   -1.5892  -13.0601   22.4406 H   0  0  0  0  0  0  0  0  0  0  0  0
    0.0429  -10.1559   21.1268 H   0  0  0  0  0  0  0  0  0  0  0  0
    2.4752  -11.6077   19.6981 H   0  0  0  0  0  0  0  0  0  0  0  0
    2.8305  -12.8744   21.9257 H   0  0  0  0  0  0  0  0  0  0  0  0
  1  2  1  0
  2  3  1  0
  3  4  1  0
  4  5  1  0
  4  6  1  0
  6  7  2  0
  6  8  1  0
  8  9  2  0
  9 10  1  0
 10 11  2  0
 11 12  1  0
 12 13  1  0
 13 14  1  0
 14 15  1  0
 15 16  1  0
 16 17  1  0
  2 18  1  0
 18 19  1  0
 19 20  2  0
 19 21  1  0
 21 22  1  0
 22 23  2  0
 23 24  1  0
 24 25  1  0
 12  8  1  0
 17 13  1  0
 25 21  2  0
  1 26  1  0
  1 27  1  0
  1 28  1  0
  2 29  1  0
  3 30  1  0
  3 31  1  0
  5 32  1  0
  5 33  1  0
  5 34  1  0
  9 35  1  0
 10 36  1  0
 13 37  1  0
 14 38  1  0
 14 39  1  0
 15 40  1  0
 15 41  1  0
 16 42  1  0
 16 43  1  0
 17 44  1  0
 17 45  1  0
 18 46  1  0
 22 47  1  0
 24 48  1  0
 25 49  1  0
M  END
>  <Energy>  (32) 
956.4074074297705

>  <compound_id>  (32) 
28373

>  <target_id>  (32) 
1

>  <reference_id>  (32) 
96

>  <inspiration_ids>  (32) 
[122, 96]

>  <energy_score>  (32) 
926.8441778814564

>  <distance_score>  (32) 
11.788134197994188

>  <path>  (32) 
/opt/xchem-fragalysis-2/maxwin/BulkDock/SCRATCH/511025/C28373-P96/C28373-P96.minimised.mol

>  <scratch_subdir>  (32) 
/opt/xchem-fragalysis-2/maxwin/BulkDock/SCRATCH/511025/C28373-P96

>  <fragmenstein_runtime>  (32) 
32.548377990722656

>  <fragmenstein_outcome>  (32) 
too moved

>  <fragmenstein_mode>  (32) 
expansion

>  <fragmenstein_error>  (32) 


$$$$
C18705-P122
     RDKit          3D

 49 51  0  0  0  0  0  0  0  0999 V2000
   -4.2731  -13.7151    8.7738 C   0  0  0  0  0  0  0  0  0  0  0  0
   -3.8420  -13.7600   10.2467 C   0  0  0  0  0  0  0  0  0  0  0  0
   -4.0901  -15.4863   10.7770 C   0  0  0  0  0  0  0  0  0  0  0  0
   -4.9494  -16.2424   12.4107 N   0  0  0  0  0  0  0  0  0  0  0  0
   -4.6721  -15.5451   11.3646 C   0  0  0  0  0  0  0  0  0  0  0  0
   -5.0724  -17.7695   12.7078 C   0  0  0  0  0  0  0  0  0  0  0  0
   -4.8334  -18.7092   12.0663 O   0  0  0  0  0  0  0  0  0  0  0  0
   -5.6113  -18.0059   14.0813 C   0  0  0  0  0  0  0  0  0  0  0  0
   -5.1816  -17.5614   15.3274 C   0  0  0  0  0  0  0  0  0  0  0  0
   -5.9961  -18.1770   16.2988 C   0  0  0  0  0  0  0  0  0  0  0  0
   -6.8764  -19.0034   15.7448 N   0  0  0  0  0  0  0  0  0  0  0  0
   -6.6244  -18.9031   14.4105 N   0  0  0  0  0  0  0  0  0  0  0  0
   -7.3805  -19.7293   13.4767 C   0  0  0  0  0  0  0  0  0  0  0  0
   -8.8776  -19.8565   13.8155 C   0  0  0  0  0  0  0  0  0  0  0  0
   -9.0403  -21.2709   14.3541 C   0  0  0  0  0  0  0  0  0  0  0  0
   -8.0594  -22.0717   13.5159 C   0  0  0  0  0  0  0  0  0  0  0  0
   -6.8367  -21.1676   13.4237 C   0  0  0  0  0  0  0  0  0  0  0  0
   -2.5185  -13.1112   10.3669 N   0  0  0  0  0  0  0  0  0  0  0  0
   -2.1234  -11.7194   10.2123 C   0  0  0  0  0  0  0  0  0  0  0  0
   -2.7843  -10.7375   10.0263 O   0  0  0  0  0  0  0  0  0  0  0  0
   -0.6335  -11.4537   10.3603 C   0  0  0  0  0  0  0  0  0  0  0  0
   -0.0362  -10.1608   10.6051 C   0  0  0  0  0  0  0  0  0  0  0  0
    1.3241  -10.3480   10.6033 C   0  0  0  0  0  0  0  0  0  0  0  0
    1.4928  -11.6716   10.3393 N   0  0  0  0  0  0  0  0  0  0  0  0
    0.3406  -12.3786   10.2471 N   0  0  0  0  0  0  0  0  0  0  0  0
   -3.5893  -14.3021    8.1515 H   0  0  0  0  0  0  0  0  0  0  0  0
   -5.2836  -14.1181    8.6521 H   0  0  0  0  0  0  0  0  0  0  0  0
   -4.2726  -12.6886    8.3923 H   0  0  0  0  0  0  0  0  0  0  0  0
   -4.5344  -13.1100   10.7995 H   0  0  0  0  0  0  0  0  0  0  0  0
   -2.9363  -15.7982   10.8922 H   0  0  0  0  0  0  0  0  0  0  0  0
   -4.2127  -16.1805    9.7607 H   0  0  0  0  0  0  0  0  0  0  0  0
   -4.5139  -14.6705   12.2550 H   0  0  0  0  0  0  0  0  0  0  0  0
   -5.6950  -16.1541   10.8988 H   0  0  0  0  0  0  0  0  0  0  0  0
   -5.6620  -14.7472   11.2866 H   0  0  0  0  0  0  0  0  0  0  0  0
   -4.3537  -16.8918   15.5036 H   0  0  0  0  0  0  0  0  0  0  0  0
   -5.9635  -18.0799   17.3759 H   0  0  0  0  0  0  0  0  0  0  0  0
   -7.3021  -19.2533   12.4930 H   0  0  0  0  0  0  0  0  0  0  0  0
   -9.2489  -19.1010   14.5147 H   0  0  0  0  0  0  0  0  0  0  0  0
   -9.4628  -19.7595   12.8918 H   0  0  0  0  0  0  0  0  0  0  0  0
   -8.7608  -21.3126   15.4131 H   0  0  0  0  0  0  0  0  0  0  0  0
  -10.0664  -21.6363   14.2552 H   0  0  0  0  0  0  0  0  0  0  0  0
   -7.8243  -23.0423   13.9619 H   0  0  0  0  0  0  0  0  0  0  0  0
   -8.4725  -22.2475   12.5154 H   0  0  0  0  0  0  0  0  0  0  0  0
   -6.1587  -21.3765   14.2603 H   0  0  0  0  0  0  0  0  0  0  0  0
   -6.2770  -21.3528   12.5008 H   0  0  0  0  0  0  0  0  0  0  0  0
   -1.6941  -13.6674   10.5950 H   0  0  0  0  0  0  0  0  0  0  0  0
   -0.5714   -9.2318   10.7485 H   0  0  0  0  0  0  0  0  0  0  0  0
    2.1583   -9.6753   10.7388 H   0  0  0  0  0  0  0  0  0  0  0  0
    2.3662  -12.1770   10.2349 H   0  0  0  0  0  0  0  0  0  0  0  0
  1  2  1  0
  2  3  1  0
  3  4  1  0
  4  5  1  0
  4  6  1  0
  6  7  2  0
  6  8  1  0
  8  9  2  0
  9 10  1  0
 10 11  2  0
 11 12  1  0
 12 13  1  0
 13 14  1  0
 14 15  1  0
 15 16  1  0
 16 17  1  0
  2 18  1  0
 18 19  1  0
 19 20  2  0
 19 21  1  0
 21 22  1  0
 22 23  2  0
 23 24  1  0
 24 25  1  0
 12  8  1  0
 17 13  1  0
 25 21  2  0
  1 26  1  0
  1 27  1  0
  1 28  1  0
  2 29  1  0
  3 30  1  0
  3 31  1  0
  5 32  1  0
  5 33  1  0
  5 34  1  0
  9 35  1  0
 10 36  1  0
 13 37  1  0
 14 38  1  0
 14 39  1  0
 15 40  1  0
 15 41  1  0
 16 42  1  0
 16 43  1  0
 17 44  1  0
 17 45  1  0
 18 46  1  0
 22 47  1  0
 23 48  1  0
 24 49  1  0
M  END
>  <Energy>  (33) 
817.16233851332868

>  <compound_id>  (33) 
18705

>  <target_id>  (33) 
1

>  <reference_id>  (33) 
122

>  <inspiration_ids>  (33) 
[122, 96]

>  <energy_score>  (33) 
737.0964508090283

>  <distance_score>  (33) 
15.859559895896274

>  <path>  (33) 
/opt/xchem-fragalysis-2/maxwin/BulkDock/SCRATCH/511025/C18705-P122/C18705-P122.minimised.mol

>  <scratch_subdir>  (33) 
/opt/xchem-fragalysis-2/maxwin/BulkDock/SCRATCH/511025/C18705-P122

>  <fragmenstein_runtime>  (33) 
46.239158630371094

>  <fragmenstein_outcome>  (33) 
too moved

>  <fragmenstein_mode>  (33) 
expansion

>  <fragmenstein_error>  (33) 


$$$$
C18705-P96
     RDKit          3D

 49 51  0  0  0  0  0  0  0  0999 V2000
    3.2888  -20.5487   12.1871 C   0  0  0  0  0  0  0  0  0  0  0  0
    3.2614  -19.7630   13.4996 C   0  0  0  0  0  0  0  0  0  0  0  0
    3.5049  -20.7882   14.9338 C   0  0  0  0  0  0  0  0  0  0  0  0
    2.1702  -22.1106   15.5651 N   0  0  0  0  0  0  0  0  0  0  0  0
    3.2155  -21.5545   15.0024 C   0  0  0  0  0  0  0  0  0  0  0  0
    2.2306  -23.5642   16.2806 C   0  0  0  0  0  0  0  0  0  0  0  0
    3.1110  -24.2763   16.5248 O   0  0  0  0  0  0  0  0  0  0  0  0
    0.8852  -23.9693   16.7816 C   0  0  0  0  0  0  0  0  0  0  0  0
   -0.4010  -23.5645   16.4526 C   0  0  0  0  0  0  0  0  0  0  0  0
   -1.2715  -24.1900   17.3722 C   0  0  0  0  0  0  0  0  0  0  0  0
   -0.6105  -24.9524   18.2403 N   0  0  0  0  0  0  0  0  0  0  0  0
    0.6575  -24.9456   17.7577 N   0  0  0  0  0  0  0  0  0  0  0  0
    1.5976  -25.9694   18.2088 C   0  0  0  0  0  0  0  0  0  0  0  0
    2.4991  -25.4972   19.3463 C   0  0  0  0  0  0  0  0  0  0  0  0
    1.6891  -25.7566   20.6086 C   0  0  0  0  0  0  0  0  0  0  0  0
    0.8191  -26.9722   20.3028 C   0  0  0  0  0  0  0  0  0  0  0  0
    0.9570  -27.2345   18.8030 C   0  0  0  0  0  0  0  0  0  0  0  0
    4.2650  -18.6480   13.3870 N   0  0  0  0  0  0  0  0  0  0  0  0
    5.7071  -18.6740   13.3318 C   0  0  0  0  0  0  0  0  0  0  0  0
    6.4747  -19.5848   13.4415 O   0  0  0  0  0  0  0  0  0  0  0  0
    6.3334  -17.2886   13.1232 C   0  0  0  0  0  0  0  0  0  0  0  0
    7.7278  -16.9752   13.2958 C   0  0  0  0  0  0  0  0  0  0  0  0
    7.8869  -15.6545   12.9562 C   0  0  0  0  0  0  0  0  0  0  0  0
    6.6544  -15.2442   12.5652 N   0  0  0  0  0  0  0  0  0  0  0  0
    5.6692  -16.1589   12.7709 N   0  0  0  0  0  0  0  0  0  0  0  0
    3.2413  -19.8691   11.3286 H   0  0  0  0  0  0  0  0  0  0  0  0
    4.2112  -21.1319   12.0973 H   0  0  0  0  0  0  0  0  0  0  0  0
    2.4358  -21.2284   12.1048 H   0  0  0  0  0  0  0  0  0  0  0  0
    2.2824  -19.2890   13.6298 H   0  0  0  0  0  0  0  0  0  0  0  0
    4.7230  -20.7014   15.2663 H   0  0  0  0  0  0  0  0  0  0  0  0
    3.1829  -19.8880   15.6954 H   0  0  0  0  0  0  0  0  0  0  0  0
    2.6662  -22.0557   14.0148 H   0  0  0  0  0  0  0  0  0  0  0  0
    3.9832  -22.4516   14.4808 H   0  0  0  0  0  0  0  0  0  0  0  0
    3.8674  -22.1349   15.9515 H   0  0  0  0  0  0  0  0  0  0  0  0
   -0.6634  -22.8618   15.6726 H   0  0  0  0  0  0  0  0  0  0  0  0
   -2.3463  -24.0912   17.4609 H   0  0  0  0  0  0  0  0  0  0  0  0
    2.1735  -26.2680   17.3271 H   0  0  0  0  0  0  0  0  0  0  0  0
    3.4118  -26.1054   19.3698 H   0  0  0  0  0  0  0  0  0  0  0  0
    2.7974  -24.4508   19.2642 H   0  0  0  0  0  0  0  0  0  0  0  0
    2.3308  -25.9172   21.4803 H   0  0  0  0  0  0  0  0  0  0  0  0
    1.0515  -24.8945   20.8258 H   0  0  0  0  0  0  0  0  0  0  0  0
    1.1425  -27.8471   20.8769 H   0  0  0  0  0  0  0  0  0  0  0  0
   -0.2230  -26.7724   20.5753 H   0  0  0  0  0  0  0  0  0  0  0  0
    0.0047  -27.5126   18.3405 H   0  0  0  0  0  0  0  0  0  0  0  0
    1.6408  -28.0814   18.6599 H   0  0  0  0  0  0  0  0  0  0  0  0
    3.9405  -17.7050   13.1677 H   0  0  0  0  0  0  0  0  0  0  0  0
    8.5017  -17.6661   13.6048 H   0  0  0  0  0  0  0  0  0  0  0  0
    8.7546  -15.0116   12.9097 H   0  0  0  0  0  0  0  0  0  0  0  0
    6.4132  -14.3484   12.1548 H   0  0  0  0  0  0  0  0  0  0  0  0
  1  2  1  0
  2  3  1  0
  3  4  1  0
  4  5  1  0
  4  6  1  0
  6  7  2  0
  6  8  1  0
  8  9  2  0
  9 10  1  0
 10 11  2  0
 11 12  1  0
 12 13  1  0
 13 14  1  0
 14 15  1  0
 15 16  1  0
 16 17  1  0
  2 18  1  0
 18 19  1  0
 19 20  2  0
 19 21  1  0
 21 22  1  0
 22 23  2  0
 23 24  1  0
 24 25  1  0
 12  8  1  0
 17 13  1  0
 25 21  2  0
  1 26  1  0
  1 27  1  0
  1 28  1  0
  2 29  1  0
  3 30  1  0
  3 31  1  0
  5 32  1  0
  5 33  1  0
  5 34  1  0
  9 35  1  0
 10 36  1  0
 13 37  1  0
 14 38  1  0
 14 39  1  0
 15 40  1  0
 15 41  1  0
 16 42  1  0
 16 43  1  0
 17 44  1  0
 17 45  1  0
 18 46  1  0
 22 47  1  0
 23 48  1  0
 24 49  1  0
M  END
>  <Energy>  (34) 
791.90638941344321

>  <compound_id>  (34) 
18705

>  <target_id>  (34) 
1

>  <reference_id>  (34) 
96

>  <inspiration_ids>  (34) 
[122, 96]

>  <energy_score>  (34) 
711.8405017091525

>  <distance_score>  (34) 
15.8255850976378

>  <path>  (34) 
/opt/xchem-fragalysis-2/maxwin/BulkDock/SCRATCH/511025/C18705-P96/C18705-P96.minimised.mol

>  <scratch_subdir>  (34) 
/opt/xchem-fragalysis-2/maxwin/BulkDock/SCRATCH/511025/C18705-P96

>  <fragmenstein_runtime>  (34) 
35.00284504890442

>  <fragmenstein_outcome>  (34) 
too moved

>  <fragmenstein_mode>  (34) 
expansion

>  <fragmenstein_error>  (34) 


$$$$
C18706-P122
     RDKit          3D

 33 35  0  0  0  0  0  0  0  0999 V2000
    1.8487   -8.9711   19.4938 O   0  0  0  0  0  0  0  0  0  0  0  0
    1.9104   -8.5752   18.3919 C   0  0  0  0  0  0  0  0  0  0  0  0
    3.0529   -7.9700   17.6297 N   0  0  0  0  0  0  0  0  0  0  0  0
    4.8199   -7.4501   18.1585 C   0  0  0  0  0  0  0  0  0  0  0  0
    5.4949   -6.3678   17.4517 C   0  0  0  0  0  0  0  0  0  0  0  0
    6.7059   -5.8934   17.8006 N   0  0  0  0  0  0  0  0  0  0  0  0
    7.4329   -6.4746   18.9350 N   0  0  0  0  0  0  0  0  0  0  0  0
    9.5026   -6.0307   19.1751 C   0  0  0  0  0  0  0  0  0  0  0  0
   10.7826   -5.0766   17.7864 C   0  0  0  0  0  0  0  0  0  0  0  0
   12.3192   -4.5829   18.1854 C   0  0  0  0  0  0  0  0  0  0  0  0
   12.5369   -4.9821   19.6038 C   0  0  0  0  0  0  0  0  0  0  0  0
   11.1602   -5.6089   20.2478 C   0  0  0  0  0  0  0  0  0  0  0  0
    6.0792   -7.4651   18.9483 C   0  0  0  0  0  0  0  0  0  0  0  0
    0.4329   -8.5980   17.7135 C   0  0  0  0  0  0  0  0  0  0  0  0
   -0.1880   -8.0859   16.4795 C   0  0  0  0  0  0  0  0  0  0  0  0
   -1.5677   -8.1610   16.6106 C   0  0  0  0  0  0  0  0  0  0  0  0
   -1.7719   -8.5490   17.8907 N   0  0  0  0  0  0  0  0  0  0  0  0
   -0.6488   -8.5218   18.5894 N   0  0  0  0  0  0  0  0  0  0  0  0
    2.7746   -7.8301   16.6647 H   0  0  0  0  0  0  0  0  0  0  0  0
    5.0554   -5.8678   16.5988 H   0  0  0  0  0  0  0  0  0  0  0  0
    9.4581   -7.1251   19.5666 H   0  0  0  0  0  0  0  0  0  0  0  0
   10.5475   -4.2414   17.1134 H   0  0  0  0  0  0  0  0  0  0  0  0
   11.0795   -5.6390   16.8414 H   0  0  0  0  0  0  0  0  0  0  0  0
   13.0502   -5.0215   17.5015 H   0  0  0  0  0  0  0  0  0  0  0  0
   12.4373   -3.5024   18.0367 H   0  0  0  0  0  0  0  0  0  0  0  0
   13.4126   -5.6106   19.7559 H   0  0  0  0  0  0  0  0  0  0  0  0
   12.8197   -4.0862   20.1817 H   0  0  0  0  0  0  0  0  0  0  0  0
   11.1561   -4.8188   20.9756 H   0  0  0  0  0  0  0  0  0  0  0  0
   11.6637   -6.5171   20.6551 H   0  0  0  0  0  0  0  0  0  0  0  0
    6.4483   -7.8695   19.8400 H   0  0  0  0  0  0  0  0  0  0  0  0
    0.3486   -7.6190   15.6642 H   0  0  0  0  0  0  0  0  0  0  0  0
   -2.3787   -7.8915   15.9499 H   0  0  0  0  0  0  0  0  0  0  0  0
   -2.6414   -8.6825   18.3959 H   0  0  0  0  0  0  0  0  0  0  0  0
  1  2  2  0
  2  3  1  0
  3  4  1  0
  4  5  1  0
  5  6  2  0
  6  7  1  0
  7  8  1  0
  8  9  1  0
  9 10  1  0
 10 11  1  0
 11 12  1  0
  7 13  1  0
  2 14  1  0
 14 15  1  0
 15 16  2  0
 16 17  1  0
 17 18  1  0
 13  4  2  0
 18 14  2  0
 12  8  1  0
  3 19  1  0
  5 20  1  0
  8 21  1  0
  9 22  1  0
  9 23  1  0
 10 24  1  0
 10 25  1  0
 11 26  1  0
 11 27  1  0
 12 28  1  0
 12 29  1  0
 13 30  1  0
 15 31  1  0
 16 32  1  0
 17 33  1  0
M  END
>  <Energy>  (35) 
815.09318308428124

>  <compound_id>  (35) 
18706

>  <target_id>  (35) 
1

>  <reference_id>  (35) 
122

>  <inspiration_ids>  (35) 
[122, 96]

>  <energy_score>  (35) 
714.2272854343167

>  <distance_score>  (35) 
17.045602346272876

>  <path>  (35) 
/opt/xchem-fragalysis-2/maxwin/BulkDock/SCRATCH/511025/C18706-P122/C18706-P122.minimised.mol

>  <scratch_subdir>  (35) 
/opt/xchem-fragalysis-2/maxwin/BulkDock/SCRATCH/511025/C18706-P122

>  <fragmenstein_runtime>  (35) 
9.391098499298096

>  <fragmenstein_outcome>  (35) 
too moved

>  <fragmenstein_mode>  (35) 
expansion

>  <fragmenstein_error>  (35) 


$$$$
C18706-P96
     RDKit          3D

 33 35  0  0  0  0  0  0  0  0999 V2000
    5.4618  -13.5091   24.6939 O   0  0  0  0  0  0  0  0  0  0  0  0
    4.7624  -14.1415   23.9509 C   0  0  0  0  0  0  0  0  0  0  0  0
    4.3280  -13.8604   22.5692 N   0  0  0  0  0  0  0  0  0  0  0  0
    4.6811  -12.8087   21.6759 C   0  0  0  0  0  0  0  0  0  0  0  0
    4.6575  -12.2342   19.4378 C   0  0  0  0  0  0  0  0  0  0  0  0
    5.4972  -10.9550   19.0515 N   0  0  0  0  0  0  0  0  0  0  0  0
    6.0380  -10.0191   20.5236 N   0  0  0  0  0  0  0  0  0  0  0  0
    5.7126   -8.7931   19.8244 C   0  0  0  0  0  0  0  0  0  0  0  0
    6.8828   -7.4763   20.9447 C   0  0  0  0  0  0  0  0  0  0  0  0
    8.5819   -7.1025   19.7510 C   0  0  0  0  0  0  0  0  0  0  0  0
    8.0279   -7.1130   17.6785 C   0  0  0  0  0  0  0  0  0  0  0  0
    6.3112   -8.5907   17.5937 C   0  0  0  0  0  0  0  0  0  0  0  0
    5.6060  -10.9055   22.0852 C   0  0  0  0  0  0  0  0  0  0  0  0
    4.1328  -15.4519   24.4994 C   0  0  0  0  0  0  0  0  0  0  0  0
    3.9089  -16.7110   23.8467 C   0  0  0  0  0  0  0  0  0  0  0  0
    3.1528  -17.4782   24.7091 C   0  0  0  0  0  0  0  0  0  0  0  0
    2.9778  -16.7115   25.8180 N   0  0  0  0  0  0  0  0  0  0  0  0
    3.5632  -15.5053   25.7302 N   0  0  0  0  0  0  0  0  0  0  0  0
    3.8091  -14.6500   22.2186 H   0  0  0  0  0  0  0  0  0  0  0  0
    3.7051  -11.9784   18.8769 H   0  0  0  0  0  0  0  0  0  0  0  0
    4.6151   -8.8970   20.0473 H   0  0  0  0  0  0  0  0  0  0  0  0
    6.4195   -6.5700   21.3711 H   0  0  0  0  0  0  0  0  0  0  0  0
    7.2700   -8.0581   21.8078 H   0  0  0  0  0  0  0  0  0  0  0  0
    9.3122   -7.8718   20.1274 H   0  0  0  0  0  0  0  0  0  0  0  0
    9.1531   -6.1767   20.0029 H   0  0  0  0  0  0  0  0  0  0  0  0
    7.8639   -6.1966   17.1333 H   0  0  0  0  0  0  0  0  0  0  0  0
    8.9490   -7.2164   17.0365 H   0  0  0  0  0  0  0  0  0  0  0  0
    5.8033   -8.3662   16.6228 H   0  0  0  0  0  0  0  0  0  0  0  0
    6.6556   -9.5910   17.2516 H   0  0  0  0  0  0  0  0  0  0  0  0
    5.7791  -10.3232   23.0010 H   0  0  0  0  0  0  0  0  0  0  0  0
    4.2409  -17.0020   22.8608 H   0  0  0  0  0  0  0  0  0  0  0  0
    2.7472  -18.4768   24.6341 H   0  0  0  0  0  0  0  0  0  0  0  0
    2.4846  -16.9414   26.6749 H   0  0  0  0  0  0  0  0  0  0  0  0
  1  2  2  0
  2  3  1  0
  3  4  1  0
  4  5  1  0
  5  6  2  0
  6  7  1  0
  7  8  1  0
  8  9  1  0
  9 10  1  0
 10 11  1  0
 11 12  1  0
  7 13  1  0
  2 14  1  0
 14 15  1  0
 15 16  2  0
 16 17  1  0
 17 18  1  0
 13  4  2  0
 18 14  2  0
 12  8  1  0
  3 19  1  0
  5 20  1  0
  8 21  1  0
  9 22  1  0
  9 23  1  0
 10 24  1  0
 10 25  1  0
 11 26  1  0
 11 27  1  0
 12 28  1  0
 12 29  1  0
 13 30  1  0
 15 31  1  0
 16 32  1  0
 17 33  1  0
M  END
>  <Energy>  (36) 
1438.3138699278281

>  <compound_id>  (36) 
18706

>  <target_id>  (36) 
1

>  <reference_id>  (36) 
96

>  <inspiration_ids>  (36) 
[122, 96]

>  <energy_score>  (36) 
1337.4479722778772

>  <distance_score>  (36) 
15.088266790749906

>  <path>  (36) 
/opt/xchem-fragalysis-2/maxwin/BulkDock/SCRATCH/511025/C18706-P96/C18706-P96.minimised.mol

>  <scratch_subdir>  (36) 
/opt/xchem-fragalysis-2/maxwin/BulkDock/SCRATCH/511025/C18706-P96

>  <fragmenstein_runtime>  (36) 
7.146528482437134

>  <fragmenstein_outcome>  (36) 
too moved

>  <fragmenstein_mode>  (36) 
expansion

>  <fragmenstein_error>  (36) 


$$$$
C28376-P122
     RDKit          3D

 50 52  0  0  0  0  0  0  0  0999 V2000
   -1.8128  -11.3426   20.8034 C   0  0  0  0  0  0  0  0  0  0  0  0
   -0.5118  -10.8441   21.6843 C   0  0  0  0  0  0  0  0  0  0  0  0
   -0.0609  -12.5779   22.6595 N   0  0  0  0  0  0  0  0  0  0  0  0
   -0.6891  -14.1997   23.7506 C   0  0  0  0  0  0  0  0  0  0  0  0
   -2.2942  -15.3567   24.2797 C   0  0  0  0  0  0  0  0  0  0  0  0
   -2.8258  -16.5523   25.2368 C   0  0  0  0  0  0  0  0  0  0  0  0
   -4.0518  -17.0667   24.8663 C   0  0  0  0  0  0  0  0  0  0  0  0
   -4.3454  -16.4345   23.7183 N   0  0  0  0  0  0  0  0  0  0  0  0
   -5.1684  -16.9892   22.6111 C   0  0  0  0  0  0  0  0  0  0  0  0
   -4.6038  -17.1947   21.1690 C   0  0  0  0  0  0  0  0  0  0  0  0
   -4.0864  -18.6201   20.9929 C   0  0  0  0  0  0  0  0  0  0  0  0
   -4.6426  -19.3883   22.1596 C   0  0  0  0  0  0  0  0  0  0  0  0
   -5.6386  -18.4389   22.8017 C   0  0  0  0  0  0  0  0  0  0  0  0
   -3.5235  -15.3367   23.5632 N   0  0  0  0  0  0  0  0  0  0  0  0
   -0.2070   -9.2296   20.5286 C   0  0  0  0  0  0  0  0  0  0  0  0
   -1.5005   -9.0238   19.6153 C   0  0  0  0  0  0  0  0  0  0  0  0
    1.0883   -8.1369   19.7399 N   0  0  0  0  0  0  0  0  0  0  0  0
    2.3130   -8.4646   18.4274 C   0  0  0  0  0  0  0  0  0  0  0  0
    2.3579   -9.4838   17.8174 O   0  0  0  0  0  0  0  0  0  0  0  0
    3.8250   -7.3330   17.9338 C   0  0  0  0  0  0  0  0  0  0  0  0
    4.5588   -6.4427   16.7099 C   0  0  0  0  0  0  0  0  0  0  0  0
    5.8350   -6.1316   16.7707 N   0  0  0  0  0  0  0  0  0  0  0  0
    6.0446   -6.4237   17.9861 N   0  0  0  0  0  0  0  0  0  0  0  0
    5.1526   -7.3274   18.4033 C   0  0  0  0  0  0  0  0  0  0  0  0
   -1.5955  -11.4133   19.7438 H   0  0  0  0  0  0  0  0  0  0  0  0
   -2.6938  -10.7309   21.0079 H   0  0  0  0  0  0  0  0  0  0  0  0
   -2.0884  -12.3790   20.8583 H   0  0  0  0  0  0  0  0  0  0  0  0
   -0.7836  -10.1995   22.4976 H   0  0  0  0  0  0  0  0  0  0  0  0
   -0.9387  -12.1957   22.6855 H   0  0  0  0  0  0  0  0  0  0  0  0
   -1.0157  -13.8223   24.7810 H   0  0  0  0  0  0  0  0  0  0  0  0
    0.2852  -14.3810   24.2175 H   0  0  0  0  0  0  0  0  0  0  0  0
   -2.4341  -17.1366   26.0671 H   0  0  0  0  0  0  0  0  0  0  0  0
   -4.5368  -17.9278   25.2666 H   0  0  0  0  0  0  0  0  0  0  0  0
   -6.0410  -16.3269   22.5955 H   0  0  0  0  0  0  0  0  0  0  0  0
   -3.8427  -16.5079   20.8209 H   0  0  0  0  0  0  0  0  0  0  0  0
   -5.4503  -17.0992   20.4737 H   0  0  0  0  0  0  0  0  0  0  0  0
   -4.4302  -19.0369   20.0394 H   0  0  0  0  0  0  0  0  0  0  0  0
   -2.9931  -18.6617   20.9793 H   0  0  0  0  0  0  0  0  0  0  0  0
   -5.1142  -20.3236   21.8495 H   0  0  0  0  0  0  0  0  0  0  0  0
   -3.8494  -19.6602   22.8638 H   0  0  0  0  0  0  0  0  0  0  0  0
   -6.6156  -18.5752   22.3213 H   0  0  0  0  0  0  0  0  0  0  0  0
   -5.7069  -18.6976   23.8363 H   0  0  0  0  0  0  0  0  0  0  0  0
   -0.3270   -8.5229   21.3646 H   0  0  0  0  0  0  0  0  0  0  0  0
   -1.8689   -9.8370   18.9894 H   0  0  0  0  0  0  0  0  0  0  0  0
   -2.3511   -8.6990   20.2178 H   0  0  0  0  0  0  0  0  0  0  0  0
   -1.2273   -8.3627   18.8166 H   0  0  0  0  0  0  0  0  0  0  0  0
    1.1884   -7.1811   20.0577 H   0  0  0  0  0  0  0  0  0  0  0  0
    4.0113   -6.2873   15.7712 H   0  0  0  0  0  0  0  0  0  0  0  0
    6.9365   -6.2573   18.3973 H   0  0  0  0  0  0  0  0  0  0  0  0
    5.5305   -7.9186   19.1721 H   0  0  0  0  0  0  0  0  0  0  0  0
  1  2  1  0
  2  3  1  0
  3  4  1  0
  4  5  1  0
  5  6  1  0
  6  7  2  0
  7  8  1  0
  8  9  1  0
  9 10  1  0
 10 11  1  0
 11 12  1  0
 12 13  1  0
  8 14  1  0
  2 15  1  0
 15 16  1  0
 15 17  1  0
 17 18  1  0
 18 19  2  0
 18 20  1  0
 20 21  1  0
 21 22  2  0
 22 23  1  0
 23 24  1  0
 14  5  2  0
 24 20  2  0
 13  9  1  0
  1 25  1  0
  1 26  1  0
  1 27  1  0
  2 28  1  0
  3 29  1  0
  4 30  1  0
  4 31  1  0
  6 32  1  0
  7 33  1  0
  9 34  1  0
 10 35  1  0
 10 36  1  0
 11 37  1  0
 11 38  1  0
 12 39  1  0
 12 40  1  0
 13 41  1  0
 13 42  1  0
 15 43  1  0
 16 44  1  0
 16 45  1  0
 16 46  1  0
 17 47  1  0
 21 48  1  0
 23 49  1  0
 24 50  1  0
M  END
>  <Energy>  (37) 
913.2738574288029

>  <compound_id>  (37) 
28376

>  <target_id>  (37) 
1

>  <reference_id>  (37) 
122

>  <inspiration_ids>  (37) 
[122, 96]

>  <energy_score>  (37) 
830.6466598494784

>  <distance_score>  (37) 
10.833745944107346

>  <path>  (37) 
/opt/xchem-fragalysis-2/maxwin/BulkDock/SCRATCH/511025/C28376-P122/C28376-P122.minimised.mol

>  <scratch_subdir>  (37) 
/opt/xchem-fragalysis-2/maxwin/BulkDock/SCRATCH/511025/C28376-P122

>  <fragmenstein_runtime>  (37) 
38.76934027671814

>  <fragmenstein_outcome>  (37) 
too moved

>  <fragmenstein_mode>  (37) 
expansion

>  <fragmenstein_error>  (37) 


$$$$
C28376-P96
     RDKit          3D

 50 52  0  0  0  0  0  0  0  0999 V2000
   -3.4002  -14.0958   22.0486 C   0  0  0  0  0  0  0  0  0  0  0  0
   -2.4312  -13.8262   20.2027 C   0  0  0  0  0  0  0  0  0  0  0  0
   -2.7289  -15.0908   18.9863 N   0  0  0  0  0  0  0  0  0  0  0  0
   -4.1281  -15.6651   18.8110 C   0  0  0  0  0  0  0  0  0  0  0  0
   -4.7681  -16.5690   19.8759 C   0  0  0  0  0  0  0  0  0  0  0  0
   -4.4135  -17.8856   20.2939 C   0  0  0  0  0  0  0  0  0  0  0  0
   -5.3796  -18.2696   21.2007 C   0  0  0  0  0  0  0  0  0  0  0  0
   -6.2667  -17.2344   21.2545 N   0  0  0  0  0  0  0  0  0  0  0  0
   -7.5218  -17.2035   21.9845 C   0  0  0  0  0  0  0  0  0  0  0  0
   -7.9106  -15.8169   22.5309 C   0  0  0  0  0  0  0  0  0  0  0  0
   -9.1128  -15.3847   21.7029 C   0  0  0  0  0  0  0  0  0  0  0  0
   -9.8348  -16.6927   21.4326 C   0  0  0  0  0  0  0  0  0  0  0  0
   -8.7040  -17.6609   21.1143 C   0  0  0  0  0  0  0  0  0  0  0  0
   -5.9169  -16.1964   20.4699 N   0  0  0  0  0  0  0  0  0  0  0  0
   -0.4384  -13.4334   20.5619 C   0  0  0  0  0  0  0  0  0  0  0  0
   -1.0967  -11.4884   20.8661 C   0  0  0  0  0  0  0  0  0  0  0  0
    1.1737  -13.3825   19.2646 N   0  0  0  0  0  0  0  0  0  0  0  0
    2.4854  -12.0818   19.0501 C   0  0  0  0  0  0  0  0  0  0  0  0
    2.5883  -11.1149   19.7691 O   0  0  0  0  0  0  0  0  0  0  0  0
    3.6430  -11.9428   17.7138 C   0  0  0  0  0  0  0  0  0  0  0  0
    4.7815  -11.0795   17.7214 C   0  0  0  0  0  0  0  0  0  0  0  0
    5.4778  -11.0433   16.5841 N   0  0  0  0  0  0  0  0  0  0  0  0
    4.7487  -11.8440   15.7866 N   0  0  0  0  0  0  0  0  0  0  0  0
    3.6489  -12.3969   16.3964 C   0  0  0  0  0  0  0  0  0  0  0  0
   -4.1033  -14.9796   22.0794 H   0  0  0  0  0  0  0  0  0  0  0  0
   -4.2714  -13.5573   22.3889 H   0  0  0  0  0  0  0  0  0  0  0  0
   -2.6814  -14.1079   22.8937 H   0  0  0  0  0  0  0  0  0  0  0  0
   -2.9015  -13.1244   19.4504 H   0  0  0  0  0  0  0  0  0  0  0  0
   -2.1926  -15.8475   19.4182 H   0  0  0  0  0  0  0  0  0  0  0  0
   -4.0523  -16.2933   17.9129 H   0  0  0  0  0  0  0  0  0  0  0  0
   -4.8090  -14.8592   18.5191 H   0  0  0  0  0  0  0  0  0  0  0  0
   -3.5706  -18.4725   19.9562 H   0  0  0  0  0  0  0  0  0  0  0  0
   -5.5267  -19.1863   21.7549 H   0  0  0  0  0  0  0  0  0  0  0  0
   -7.3923  -17.8887   22.8264 H   0  0  0  0  0  0  0  0  0  0  0  0
   -7.1062  -15.0777   22.4980 H   0  0  0  0  0  0  0  0  0  0  0  0
   -8.2190  -15.9101   23.5786 H   0  0  0  0  0  0  0  0  0  0  0  0
   -9.7421  -14.6632   22.2315 H   0  0  0  0  0  0  0  0  0  0  0  0
   -8.7826  -14.9293   20.7619 H   0  0  0  0  0  0  0  0  0  0  0  0
  -10.3731  -17.0219   22.3293 H   0  0  0  0  0  0  0  0  0  0  0  0
  -10.5541  -16.6112   20.6127 H   0  0  0  0  0  0  0  0  0  0  0  0
   -8.4624  -17.6075   20.0455 H   0  0  0  0  0  0  0  0  0  0  0  0
   -8.9905  -18.6952   21.3321 H   0  0  0  0  0  0  0  0  0  0  0  0
   -0.5445  -14.5537   20.4760 H   0  0  0  0  0  0  0  0  0  0  0  0
   -2.1202  -11.0982   20.0015 H   0  0  0  0  0  0  0  0  0  0  0  0
   -0.1298  -10.6626   21.0141 H   0  0  0  0  0  0  0  0  0  0  0  0
   -1.0452  -10.2756   20.5116 H   0  0  0  0  0  0  0  0  0  0  0  0
    1.3319  -14.1102   18.6204 H   0  0  0  0  0  0  0  0  0  0  0  0
    5.0805  -10.4538   18.5308 H   0  0  0  0  0  0  0  0  0  0  0  0
    5.0510  -11.9653   14.8266 H   0  0  0  0  0  0  0  0  0  0  0  0
    2.9756  -13.0438   15.8579 H   0  0  0  0  0  0  0  0  0  0  0  0
  1  2  1  0
  2  3  1  0
  3  4  1  0
  4  5  1  0
  5  6  1  0
  6  7  2  0
  7  8  1  0
  8  9  1  0
  9 10  1  0
 10 11  1  0
 11 12  1  0
 12 13  1  0
  8 14  1  0
  2 15  1  0
 15 16  1  0
 15 17  1  0
 17 18  1  0
 18 19  2  0
 18 20  1  0
 20 21  1  0
 21 22  2  0
 22 23  1  0
 23 24  1  0
 14  5  2  0
 24 20  2  0
 13  9  1  0
  1 25  1  0
  1 26  1  0
  1 27  1  0
  2 28  1  0
  3 29  1  0
  4 30  1  0
  4 31  1  0
  6 32  1  0
  7 33  1  0
  9 34  1  0
 10 35  1  0
 10 36  1  0
 11 37  1  0
 11 38  1  0
 12 39  1  0
 12 40  1  0
 13 41  1  0
 13 42  1  0
 15 43  1  0
 16 44  1  0
 16 45  1  0
 16 46  1  0
 17 47  1  0
 21 48  1  0
 23 49  1  0
 24 50  1  0
M  END
>  <Energy>  (38) 
682.610739577137

>  <compound_id>  (38) 
28376

>  <target_id>  (38) 
1

>  <reference_id>  (38) 
96

>  <inspiration_ids>  (38) 
[122, 96]

>  <energy_score>  (38) 
599.9835419978263

>  <distance_score>  (38) 
12.444398746443714

>  <path>  (38) 
/opt/xchem-fragalysis-2/maxwin/BulkDock/SCRATCH/511025/C28376-P96/C28376-P96.minimised.mol

>  <scratch_subdir>  (38) 
/opt/xchem-fragalysis-2/maxwin/BulkDock/SCRATCH/511025/C28376-P96

>  <fragmenstein_runtime>  (38) 
27.378408670425415

>  <fragmenstein_outcome>  (38) 
too moved

>  <fragmenstein_mode>  (38) 
expansion

>  <fragmenstein_error>  (38) 


$$$$
C18707-P122
     RDKit          3D

 50 52  0  0  0  0  0  0  0  0999 V2000
   -5.0656  -16.9016   27.2235 C   0  0  0  0  0  0  0  0  0  0  0  0
   -6.2380  -16.6949   28.2322 C   0  0  0  0  0  0  0  0  0  0  0  0
   -7.8969  -17.5724   28.1899 N   0  0  0  0  0  0  0  0  0  0  0  0
   -8.5865  -19.3272   28.3152 C   0  0  0  0  0  0  0  0  0  0  0  0
  -10.0912  -20.6380   29.0336 C   0  0  0  0  0  0  0  0  0  0  0  0
  -10.8420  -21.7648   28.3459 C   0  0  0  0  0  0  0  0  0  0  0  0
  -11.6194  -22.4100   29.2767 C   0  0  0  0  0  0  0  0  0  0  0  0
  -11.3222  -21.8165   30.4463 N   0  0  0  0  0  0  0  0  0  0  0  0
  -11.3765  -22.3715   31.7780 C   0  0  0  0  0  0  0  0  0  0  0  0
  -12.6424  -22.1327   32.5712 C   0  0  0  0  0  0  0  0  0  0  0  0
  -12.5549  -23.1705   33.6752 C   0  0  0  0  0  0  0  0  0  0  0  0
  -11.6488  -24.2903   33.1877 C   0  0  0  0  0  0  0  0  0  0  0  0
  -11.0818  -23.8648   31.8581 C   0  0  0  0  0  0  0  0  0  0  0  0
  -10.5994  -20.7062   30.2951 N   0  0  0  0  0  0  0  0  0  0  0  0
   -5.2214  -16.0506   29.5761 C   0  0  0  0  0  0  0  0  0  0  0  0
   -4.2424  -17.0732   30.1439 C   0  0  0  0  0  0  0  0  0  0  0  0
   -4.5457  -14.6976   29.4535 N   0  0  0  0  0  0  0  0  0  0  0  0
   -3.6042  -14.0177   30.3372 C   0  0  0  0  0  0  0  0  0  0  0  0
   -3.0676  -14.3925   31.3414 O   0  0  0  0  0  0  0  0  0  0  0  0
   -3.2626  -12.5723   29.9869 C   0  0  0  0  0  0  0  0  0  0  0  0
   -2.2585  -11.7886   30.6875 C   0  0  0  0  0  0  0  0  0  0  0  0
   -2.2067  -10.5568   30.0846 C   0  0  0  0  0  0  0  0  0  0  0  0
   -3.1688  -10.6088   29.1293 N   0  0  0  0  0  0  0  0  0  0  0  0
   -3.7813  -11.8193   28.9904 N   0  0  0  0  0  0  0  0  0  0  0  0
   -4.7481  -17.9383   27.1238 H   0  0  0  0  0  0  0  0  0  0  0  0
   -4.1570  -16.3547   27.4976 H   0  0  0  0  0  0  0  0  0  0  0  0
   -5.3169  -16.4599   26.2623 H   0  0  0  0  0  0  0  0  0  0  0  0
   -6.6818  -15.7439   27.8906 H   0  0  0  0  0  0  0  0  0  0  0  0
   -8.3783  -17.0979   27.4073 H   0  0  0  0  0  0  0  0  0  0  0  0
   -9.2531  -18.7216   27.7278 H   0  0  0  0  0  0  0  0  0  0  0  0
   -7.7731  -20.0125   27.9299 H   0  0  0  0  0  0  0  0  0  0  0  0
  -10.9115  -22.0117   27.3065 H   0  0  0  0  0  0  0  0  0  0  0  0
  -12.2445  -23.2804   29.1897 H   0  0  0  0  0  0  0  0  0  0  0  0
  -10.5843  -21.8685   32.3374 H   0  0  0  0  0  0  0  0  0  0  0  0
  -12.6613  -21.1301   33.0069 H   0  0  0  0  0  0  0  0  0  0  0  0
  -13.5462  -22.2242   31.9697 H   0  0  0  0  0  0  0  0  0  0  0  0
  -12.0797  -22.7135   34.5411 H   0  0  0  0  0  0  0  0  0  0  0  0
  -13.5410  -23.5213   33.9894 H   0  0  0  0  0  0  0  0  0  0  0  0
  -10.8625  -24.5260   33.9046 H   0  0  0  0  0  0  0  0  0  0  0  0
  -12.1882  -25.2122   33.0526 H   0  0  0  0  0  0  0  0  0  0  0  0
  -11.5471  -24.4336   31.0493 H   0  0  0  0  0  0  0  0  0  0  0  0
  -10.0128  -24.0901   31.8096 H   0  0  0  0  0  0  0  0  0  0  0  0
   -5.7702  -15.8082   30.4618 H   0  0  0  0  0  0  0  0  0  0  0  0
   -3.7599  -16.7084   31.0562 H   0  0  0  0  0  0  0  0  0  0  0  0
   -3.4345  -17.3037   29.4477 H   0  0  0  0  0  0  0  0  0  0  0  0
   -4.7890  -17.9601   30.4554 H   0  0  0  0  0  0  0  0  0  0  0  0
   -4.8593  -14.0468   28.7405 H   0  0  0  0  0  0  0  0  0  0  0  0
   -1.6646  -12.1334   31.5240 H   0  0  0  0  0  0  0  0  0  0  0  0
   -1.6233   -9.6688   30.2783 H   0  0  0  0  0  0  0  0  0  0  0  0
   -3.4723   -9.8373   28.5508 H   0  0  0  0  0  0  0  0  0  0  0  0
  1  2  1  0
  2  3  1  0
  3  4  1  0
  4  5  1  0
  5  6  1  0
  6  7  2  0
  7  8  1  0
  8  9  1  0
  9 10  1  0
 10 11  1  0
 11 12  1  0
 12 13  1  0
  8 14  1  0
  2 15  1  0
 15 16  1  0
 15 17  1  0
 17 18  1  0
 18 19  2  0
 18 20  1  0
 20 21  1  0
 21 22  2  0
 22 23  1  0
 23 24  1  0
 14  5  2  0
 24 20  2  0
 13  9  1  0
  1 25  1  0
  1 26  1  0
  1 27  1  0
  2 28  1  0
  3 29  1  0
  4 30  1  0
  4 31  1  0
  6 32  1  0
  7 33  1  0
  9 34  1  0
 10 35  1  0
 10 36  1  0
 11 37  1  0
 11 38  1  0
 12 39  1  0
 12 40  1  0
 13 41  1  0
 13 42  1  0
 15 43  1  0
 16 44  1  0
 16 45  1  0
 16 46  1  0
 17 47  1  0
 21 48  1  0
 22 49  1  0
 23 50  1  0
M  END
>  <Energy>  (39) 
442.7151998072074

>  <compound_id>  (39) 
18707

>  <target_id>  (39) 
1

>  <reference_id>  (39) 
122

>  <inspiration_ids>  (39) 
[122, 96]

>  <energy_score>  (39) 
337.087458749676

>  <distance_score>  (39) 
15.477880271804954

>  <path>  (39) 
/opt/xchem-fragalysis-2/maxwin/BulkDock/SCRATCH/511025/C18707-P122/C18707-P122.minimised.mol

>  <scratch_subdir>  (39) 
/opt/xchem-fragalysis-2/maxwin/BulkDock/SCRATCH/511025/C18707-P122

>  <fragmenstein_runtime>  (39) 
44.891303062438965

>  <fragmenstein_outcome>  (39) 
too moved

>  <fragmenstein_mode>  (39) 
expansion

>  <fragmenstein_error>  (39) 


$$$$
C18707-P96
     RDKit          3D

 50 52  0  0  0  0  0  0  0  0999 V2000
   -8.5435  -17.6048   15.9379 C   0  0  0  0  0  0  0  0  0  0  0  0
   -7.4042  -17.5624   16.9697 C   0  0  0  0  0  0  0  0  0  0  0  0
   -7.7798  -18.5953   17.9618 N   0  0  0  0  0  0  0  0  0  0  0  0
   -7.7082  -18.2155   19.3864 C   0  0  0  0  0  0  0  0  0  0  0  0
   -8.3361  -19.2943   20.2286 C   0  0  0  0  0  0  0  0  0  0  0  0
   -7.7408  -20.1511   21.1851 C   0  0  0  0  0  0  0  0  0  0  0  0
   -8.7275  -21.0555   21.5093 C   0  0  0  0  0  0  0  0  0  0  0  0
   -9.7942  -20.7468   20.7130 N   0  0  0  0  0  0  0  0  0  0  0  0
  -10.8944  -21.6016   20.3157 C   0  0  0  0  0  0  0  0  0  0  0  0
  -12.0946  -20.8910   19.6580 C   0  0  0  0  0  0  0  0  0  0  0  0
  -12.7410  -21.9249   18.7312 C   0  0  0  0  0  0  0  0  0  0  0  0
  -11.8308  -23.1464   18.7572 C   0  0  0  0  0  0  0  0  0  0  0  0
  -10.4926  -22.6082   19.2328 C   0  0  0  0  0  0  0  0  0  0  0  0
   -9.6403  -19.5652   20.1015 N   0  0  0  0  0  0  0  0  0  0  0  0
   -6.0225  -17.7914   16.2431 C   0  0  0  0  0  0  0  0  0  0  0  0
   -4.9121  -18.1431   17.2409 C   0  0  0  0  0  0  0  0  0  0  0  0
   -5.5255  -16.7252   15.3338 N   0  0  0  0  0  0  0  0  0  0  0  0
   -6.0246  -15.3913   15.0701 C   0  0  0  0  0  0  0  0  0  0  0  0
   -7.0120  -14.8369   15.4604 O   0  0  0  0  0  0  0  0  0  0  0  0
   -5.1328  -14.6080   14.1011 C   0  0  0  0  0  0  0  0  0  0  0  0
   -4.1421  -15.0761   13.1842 C   0  0  0  0  0  0  0  0  0  0  0  0
   -3.7164  -13.9866   12.4614 C   0  0  0  0  0  0  0  0  0  0  0  0
   -4.4716  -12.9572   12.9086 N   0  0  0  0  0  0  0  0  0  0  0  0
   -5.2257  -13.2595   13.9744 N   0  0  0  0  0  0  0  0  0  0  0  0
   -8.6291  -18.5969   15.4783 H   0  0  0  0  0  0  0  0  0  0  0  0
   -8.3976  -16.8869   15.1279 H   0  0  0  0  0  0  0  0  0  0  0  0
   -9.5051  -17.3704   16.4098 H   0  0  0  0  0  0  0  0  0  0  0  0
   -7.4125  -16.5786   17.4406 H   0  0  0  0  0  0  0  0  0  0  0  0
   -7.3412  -19.4955   17.7969 H   0  0  0  0  0  0  0  0  0  0  0  0
   -6.6665  -18.0630   19.6848 H   0  0  0  0  0  0  0  0  0  0  0  0
   -8.2519  -17.2784   19.5546 H   0  0  0  0  0  0  0  0  0  0  0  0
   -6.7194  -20.1521   21.5354 H   0  0  0  0  0  0  0  0  0  0  0  0
   -8.7118  -21.9241   22.1466 H   0  0  0  0  0  0  0  0  0  0  0  0
  -11.2485  -22.1108   21.2187 H   0  0  0  0  0  0  0  0  0  0  0  0
  -11.7955  -20.0306   19.0482 H   0  0  0  0  0  0  0  0  0  0  0  0
  -12.7898  -20.5068   20.4084 H   0  0  0  0  0  0  0  0  0  0  0  0
  -13.7578  -22.1820   19.0407 H   0  0  0  0  0  0  0  0  0  0  0  0
  -12.8070  -21.5201   17.7146 H   0  0  0  0  0  0  0  0  0  0  0  0
  -11.7613  -23.6328   17.7800 H   0  0  0  0  0  0  0  0  0  0  0  0
  -12.2154  -23.8819   19.4739 H   0  0  0  0  0  0  0  0  0  0  0  0
   -9.9711  -22.1072   18.4066 H   0  0  0  0  0  0  0  0  0  0  0  0
   -9.8361  -23.4029   19.5939 H   0  0  0  0  0  0  0  0  0  0  0  0
   -6.1352  -18.6662   15.5887 H   0  0  0  0  0  0  0  0  0  0  0  0
   -4.0172  -18.4827   16.7103 H   0  0  0  0  0  0  0  0  0  0  0  0
   -4.6361  -17.2813   17.8539 H   0  0  0  0  0  0  0  0  0  0  0  0
   -5.1905  -18.9652   17.9056 H   0  0  0  0  0  0  0  0  0  0  0  0
   -4.6092  -16.8290   14.8998 H   0  0  0  0  0  0  0  0  0  0  0  0
   -3.8151  -16.0941   13.0335 H   0  0  0  0  0  0  0  0  0  0  0  0
   -2.9939  -13.8791   11.6650 H   0  0  0  0  0  0  0  0  0  0  0  0
   -4.5167  -12.0112   12.5472 H   0  0  0  0  0  0  0  0  0  0  0  0
  1  2  1  0
  2  3  1  0
  3  4  1  0
  4  5  1  0
  5  6  1  0
  6  7  2  0
  7  8  1  0
  8  9  1  0
  9 10  1  0
 10 11  1  0
 11 12  1  0
 12 13  1  0
  8 14  1  0
  2 15  1  0
 15 16  1  0
 15 17  1  0
 17 18  1  0
 18 19  2  0
 18 20  1  0
 20 21  1  0
 21 22  2  0
 22 23  1  0
 23 24  1  0
 14  5  2  0
 24 20  2  0
 13  9  1  0
  1 25  1  0
  1 26  1  0
  1 27  1  0
  2 28  1  0
  3 29  1  0
  4 30  1  0
  4 31  1  0
  6 32  1  0
  7 33  1  0
  9 34  1  0
 10 35  1  0
 10 36  1  0
 11 37  1  0
 11 38  1  0
 12 39  1  0
 12 40  1  0
 13 41  1  0
 13 42  1  0
 15 43  1  0
 16 44  1  0
 16 45  1  0
 16 46  1  0
 17 47  1  0
 21 48  1  0
 22 49  1  0
 23 50  1  0
M  END
>  <Energy>  (40) 
108.20951406893016

>  <compound_id>  (40) 
18707

>  <target_id>  (40) 
1

>  <reference_id>  (40) 
96

>  <inspiration_ids>  (40) 
[122, 96]

>  <energy_score>  (40) 
2.58177301141302

>  <distance_score>  (40) 
15.820418978282929

>  <path>  (40) 
/opt/xchem-fragalysis-2/maxwin/BulkDock/SCRATCH/511025/C18707-P96/C18707-P96.minimised.mol

>  <scratch_subdir>  (40) 
/opt/xchem-fragalysis-2/maxwin/BulkDock/SCRATCH/511025/C18707-P96

>  <fragmenstein_runtime>  (40) 
30.00391149520874

>  <fragmenstein_outcome>  (40) 
too moved

>  <fragmenstein_mode>  (40) 
expansion

>  <fragmenstein_error>  (40) 


$$$$
C28377-P122
     RDKit          3D

 46 48  0  0  0  0  0  0  0  0999 V2000
    1.9825  -14.7688   20.6439 C   0  0  0  0  0  0  0  0  0  0  0  0
    2.3758  -15.2099   19.5324 N   0  0  0  0  0  0  0  0  0  0  0  0
    0.6702  -16.3295   19.7952 C   0  0  0  0  0  0  0  0  0  0  0  0
   -1.2851  -16.3951   19.9185 C   0  0  0  0  0  0  0  0  0  0  0  0
   -1.9368  -17.7852   20.4394 N   0  0  0  0  0  0  0  0  0  0  0  0
   -3.3878  -18.1847   20.6565 C   0  0  0  0  0  0  0  0  0  0  0  0
   -4.4041  -17.5889   20.4163 O   0  0  0  0  0  0  0  0  0  0  0  0
   -3.5457  -19.5568   21.4102 C   0  0  0  0  0  0  0  0  0  0  0  0
   -2.5788  -20.3388   22.0483 C   0  0  0  0  0  0  0  0  0  0  0  0
   -2.8760  -21.6373   21.5794 C   0  0  0  0  0  0  0  0  0  0  0  0
   -4.0597  -21.6676   20.9567 N   0  0  0  0  0  0  0  0  0  0  0  0
   -4.6730  -20.5454   21.4724 N   0  0  0  0  0  0  0  0  0  0  0  0
   -5.5217  -20.9419   22.7054 C   0  0  0  0  0  0  0  0  0  0  0  0
   -7.2637  -20.5613   22.7490 C   0  0  0  0  0  0  0  0  0  0  0  0
   -8.3604  -22.1910   23.1728 C   0  0  0  0  0  0  0  0  0  0  0  0
   -6.9763  -23.4342   23.4918 C   0  0  0  0  0  0  0  0  0  0  0  0
   -5.3977  -22.5957   23.2460 C   0  0  0  0  0  0  0  0  0  0  0  0
    2.6561  -14.2022   18.6812 C   0  0  0  0  0  0  0  0  0  0  0  0
    1.9695  -13.6634   17.8892 O   0  0  0  0  0  0  0  0  0  0  0  0
    4.3601  -13.5617   19.0593 C   0  0  0  0  0  0  0  0  0  0  0  0
    4.4421  -12.9060   20.5232 C   0  0  0  0  0  0  0  0  0  0  0  0
    5.2969  -11.9467   20.9105 N   0  0  0  0  0  0  0  0  0  0  0  0
    6.1602  -12.1116   20.0424 N   0  0  0  0  0  0  0  0  0  0  0  0
    5.3254  -12.5245   19.0845 C   0  0  0  0  0  0  0  0  0  0  0  0
    2.7948  -14.7504   21.3829 H   0  0  0  0  0  0  0  0  0  0  0  0
    1.1106  -15.1110   21.1638 H   0  0  0  0  0  0  0  0  0  0  0  0
    2.4870  -13.8825   20.5775 H   0  0  0  0  0  0  0  0  0  0  0  0
    0.8349  -17.2096   19.1367 H   0  0  0  0  0  0  0  0  0  0  0  0
    0.6857  -16.7824   20.7823 H   0  0  0  0  0  0  0  0  0  0  0  0
   -1.7489  -15.5598   20.4281 H   0  0  0  0  0  0  0  0  0  0  0  0
   -1.8170  -16.3015   18.9638 H   0  0  0  0  0  0  0  0  0  0  0  0
   -1.3404  -18.4858   20.8286 H   0  0  0  0  0  0  0  0  0  0  0  0
   -1.6262  -20.0359   22.4494 H   0  0  0  0  0  0  0  0  0  0  0  0
   -2.2600  -22.5276   21.5963 H   0  0  0  0  0  0  0  0  0  0  0  0
   -4.9996  -20.3378   23.4581 H   0  0  0  0  0  0  0  0  0  0  0  0
   -7.5373  -20.0410   21.8412 H   0  0  0  0  0  0  0  0  0  0  0  0
   -7.3911  -19.6534   23.3323 H   0  0  0  0  0  0  0  0  0  0  0  0
   -8.9057  -22.4134   22.2468 H   0  0  0  0  0  0  0  0  0  0  0  0
   -9.3502  -22.2939   23.6024 H   0  0  0  0  0  0  0  0  0  0  0  0
   -6.8969  -24.1578   22.6857 H   0  0  0  0  0  0  0  0  0  0  0  0
   -7.0196  -23.8591   24.4834 H   0  0  0  0  0  0  0  0  0  0  0  0
   -4.8426  -22.6182   24.1943 H   0  0  0  0  0  0  0  0  0  0  0  0
   -4.8394  -23.2351   22.5567 H   0  0  0  0  0  0  0  0  0  0  0  0
    3.7076  -12.9981   21.2905 H   0  0  0  0  0  0  0  0  0  0  0  0
    6.8613  -11.4009   19.9140 H   0  0  0  0  0  0  0  0  0  0  0  0
    5.5495  -11.7623   18.4346 H   0  0  0  0  0  0  0  0  0  0  0  0
  1  2  1  0
  2  3  1  0
  3  4  1  0
  4  5  1  0
  5  6  1  0
  6  7  2  0
  6  8  1  0
  8  9  2  0
  9 10  1  0
 10 11  2  0
 11 12  1  0
 12 13  1  0
 13 14  1  0
 14 15  1  0
 15 16  1  0
 16 17  1  0
  2 18  1  0
 18 19  2  0
 18 20  1  0
 20 21  1  0
 21 22  2  0
 22 23  1  0
 23 24  1  0
 12  8  1  0
 17 13  1  0
 24 20  2  0
  1 25  1  0
  1 26  1  0
  1 27  1  0
  3 28  1  0
  3 29  1  0
  4 30  1  0
  4 31  1  0
  5 32  1  0
  9 33  1  0
 10 34  1  0
 13 35  1  0
 14 36  1  0
 14 37  1  0
 15 38  1  0
 15 39  1  0
 16 40  1  0
 16 41  1  0
 17 42  1  0
 17 43  1  0
 21 44  1  0
 23 45  1  0
 24 46  1  0
M  END
>  <Energy>  (41) 
714.98945509664611

>  <compound_id>  (41) 
28377

>  <target_id>  (41) 
1

>  <reference_id>  (41) 
122

>  <inspiration_ids>  (41) 
[122, 96]

>  <energy_score>  (41) 
696.05267607001

>  <distance_score>  (41) 
12.430104530690475

>  <path>  (41) 
/opt/xchem-fragalysis-2/maxwin/BulkDock/SCRATCH/511025/C28377-P122/C28377-P122.minimised.mol

>  <scratch_subdir>  (41) 
/opt/xchem-fragalysis-2/maxwin/BulkDock/SCRATCH/511025/C28377-P122

>  <fragmenstein_runtime>  (41) 
34.47750902175903

>  <fragmenstein_outcome>  (41) 
too moved

>  <fragmenstein_mode>  (41) 
expansion

>  <fragmenstein_error>  (41) 


$$$$
C28377-P96
     RDKit          3D

 46 48  0  0  0  0  0  0  0  0999 V2000
    2.4359  -12.7784   20.8998 C   0  0  0  0  0  0  0  0  0  0  0  0
    2.3772  -11.9252   19.2287 N   0  0  0  0  0  0  0  0  0  0  0  0
    1.3564  -13.5385   18.8205 C   0  0  0  0  0  0  0  0  0  0  0  0
   -0.0229  -14.9988   19.2444 C   0  0  0  0  0  0  0  0  0  0  0  0
   -1.6004  -15.4787   19.1435 N   0  0  0  0  0  0  0  0  0  0  0  0
   -2.2065  -16.6573   18.5408 C   0  0  0  0  0  0  0  0  0  0  0  0
   -1.7228  -17.5336   17.8924 O   0  0  0  0  0  0  0  0  0  0  0  0
   -3.6382  -16.8395   18.8811 C   0  0  0  0  0  0  0  0  0  0  0  0
   -4.1992  -18.0421   19.3264 C   0  0  0  0  0  0  0  0  0  0  0  0
   -5.5155  -17.7550   19.7162 C   0  0  0  0  0  0  0  0  0  0  0  0
   -5.8168  -16.4744   19.5034 N   0  0  0  0  0  0  0  0  0  0  0  0
   -4.6960  -15.9620   18.9199 N   0  0  0  0  0  0  0  0  0  0  0  0
   -4.7647  -14.6727   18.2454 C   0  0  0  0  0  0  0  0  0  0  0  0
   -5.5942  -13.6115   18.9860 C   0  0  0  0  0  0  0  0  0  0  0  0
   -6.9034  -13.5254   18.2145 C   0  0  0  0  0  0  0  0  0  0  0  0
   -6.4593  -13.7049   16.7734 C   0  0  0  0  0  0  0  0  0  0  0  0
   -5.4050  -14.8027   16.8496 C   0  0  0  0  0  0  0  0  0  0  0  0
    3.9568  -11.4117   18.6015 C   0  0  0  0  0  0  0  0  0  0  0  0
    4.7062  -12.0201   17.8952 O   0  0  0  0  0  0  0  0  0  0  0  0
    4.7228   -9.8682   19.1025 C   0  0  0  0  0  0  0  0  0  0  0  0
    6.0653   -9.7164   20.3883 C   0  0  0  0  0  0  0  0  0  0  0  0
    5.8844   -9.1356   21.5335 N   0  0  0  0  0  0  0  0  0  0  0  0
    4.7503   -8.6745   21.1749 N   0  0  0  0  0  0  0  0  0  0  0  0
    3.9585   -9.1297   20.0601 C   0  0  0  0  0  0  0  0  0  0  0  0
    2.4816  -11.8197   21.4854 H   0  0  0  0  0  0  0  0  0  0  0  0
    1.5647  -12.9643   21.5274 H   0  0  0  0  0  0  0  0  0  0  0  0
    3.2336  -13.4024   21.3211 H   0  0  0  0  0  0  0  0  0  0  0  0
    1.5533  -13.5848   17.7062 H   0  0  0  0  0  0  0  0  0  0  0  0
    1.9712  -14.2200   19.0382 H   0  0  0  0  0  0  0  0  0  0  0  0
    0.2692  -16.0058   19.3551 H   0  0  0  0  0  0  0  0  0  0  0  0
   -0.2510  -14.6743   20.2474 H   0  0  0  0  0  0  0  0  0  0  0  0
   -2.2987  -14.9933   19.6970 H   0  0  0  0  0  0  0  0  0  0  0  0
   -3.6771  -18.9867   19.3993 H   0  0  0  0  0  0  0  0  0  0  0  0
   -6.2606  -18.4157   20.1421 H   0  0  0  0  0  0  0  0  0  0  0  0
   -3.7396  -14.3043   18.1455 H   0  0  0  0  0  0  0  0  0  0  0  0
   -5.7489  -13.8208   20.0489 H   0  0  0  0  0  0  0  0  0  0  0  0
   -5.0819  -12.6444   18.9097 H   0  0  0  0  0  0  0  0  0  0  0  0
   -7.4166  -12.5729   18.3752 H   0  0  0  0  0  0  0  0  0  0  0  0
   -7.5802  -14.3351   18.5106 H   0  0  0  0  0  0  0  0  0  0  0  0
   -6.0086  -12.7781   16.3987 H   0  0  0  0  0  0  0  0  0  0  0  0
   -7.2878  -13.9713   16.1108 H   0  0  0  0  0  0  0  0  0  0  0  0
   -4.6596  -14.6890   16.0548 H   0  0  0  0  0  0  0  0  0  0  0  0
   -5.8804  -15.7811   16.7081 H   0  0  0  0  0  0  0  0  0  0  0  0
    7.0972  -10.0576   20.3379 H   0  0  0  0  0  0  0  0  0  0  0  0
    4.6079   -7.7191   21.4808 H   0  0  0  0  0  0  0  0  0  0  0  0
    2.9261   -9.3810   20.2305 H   0  0  0  0  0  0  0  0  0  0  0  0
  1  2  1  0
  2  3  1  0
  3  4  1  0
  4  5  1  0
  5  6  1  0
  6  7  2  0
  6  8  1  0
  8  9  2  0
  9 10  1  0
 10 11  2  0
 11 12  1  0
 12 13  1  0
 13 14  1  0
 14 15  1  0
 15 16  1  0
 16 17  1  0
  2 18  1  0
 18 19  2  0
 18 20  1  0
 20 21  1  0
 21 22  2  0
 22 23  1  0
 23 24  1  0
 12  8  1  0
 17 13  1  0
 24 20  2  0
  1 25  1  0
  1 26  1  0
  1 27  1  0
  3 28  1  0
  3 29  1  0
  4 30  1  0
  4 31  1  0
  5 32  1  0
  9 33  1  0
 10 34  1  0
 13 35  1  0
 14 36  1  0
 14 37  1  0
 15 38  1  0
 15 39  1  0
 16 40  1  0
 16 41  1  0
 17 42  1  0
 17 43  1  0
 21 44  1  0
 23 45  1  0
 24 46  1  0
M  END
>  <Energy>  (42) 
545.28451029413395

>  <compound_id>  (42) 
28377

>  <target_id>  (42) 
1

>  <reference_id>  (42) 
96

>  <inspiration_ids>  (42) 
[122, 96]

>  <energy_score>  (42) 
526.347731267494

>  <distance_score>  (42) 
12.410652870363542

>  <path>  (42) 
/opt/xchem-fragalysis-2/maxwin/BulkDock/SCRATCH/511025/C28377-P96/C28377-P96.minimised.mol

>  <scratch_subdir>  (42) 
/opt/xchem-fragalysis-2/maxwin/BulkDock/SCRATCH/511025/C28377-P96

>  <fragmenstein_runtime>  (42) 
41.77031469345093

>  <fragmenstein_outcome>  (42) 
too moved

>  <fragmenstein_mode>  (42) 
expansion

>  <fragmenstein_error>  (42) 


$$$$
C18708-P122
     RDKit          3D

 46 48  0  0  0  0  0  0  0  0999 V2000
    1.3429  -12.1478   14.2964 C   0  0  0  0  0  0  0  0  0  0  0  0
    3.1102  -12.0487   15.2822 N   0  0  0  0  0  0  0  0  0  0  0  0
    1.6521  -13.5025   15.8606 C   0  0  0  0  0  0  0  0  0  0  0  0
   -0.0625  -13.5539   17.1323 C   0  0  0  0  0  0  0  0  0  0  0  0
   -1.7107  -14.6290   17.3409 N   0  0  0  0  0  0  0  0  0  0  0  0
   -2.1296  -15.8487   18.5669 C   0  0  0  0  0  0  0  0  0  0  0  0
   -1.4924  -16.1451   19.5555 O   0  0  0  0  0  0  0  0  0  0  0  0
   -3.4911  -16.9242   18.4041 C   0  0  0  0  0  0  0  0  0  0  0  0
   -3.3890  -17.9426   19.3634 C   0  0  0  0  0  0  0  0  0  0  0  0
   -3.3093  -19.1645   18.6801 C   0  0  0  0  0  0  0  0  0  0  0  0
   -3.4382  -18.9252   17.3728 N   0  0  0  0  0  0  0  0  0  0  0  0
   -4.1481  -17.7333   17.4027 N   0  0  0  0  0  0  0  0  0  0  0  0
   -5.5515  -18.0702   17.1093 C   0  0  0  0  0  0  0  0  0  0  0  0
   -6.4502  -18.5321   18.2683 C   0  0  0  0  0  0  0  0  0  0  0  0
   -7.8172  -18.6498   17.6076 C   0  0  0  0  0  0  0  0  0  0  0  0
   -7.8704  -17.5117   16.5958 C   0  0  0  0  0  0  0  0  0  0  0  0
   -6.4199  -17.1915   16.2168 C   0  0  0  0  0  0  0  0  0  0  0  0
    4.9786  -12.1551   14.5834 C   0  0  0  0  0  0  0  0  0  0  0  0
    4.9514  -12.1962   13.4303 O   0  0  0  0  0  0  0  0  0  0  0  0
    6.7270  -12.0516   15.0556 C   0  0  0  0  0  0  0  0  0  0  0  0
    7.9073  -11.5705   15.9182 C   0  0  0  0  0  0  0  0  0  0  0  0
    9.0737  -11.6418   15.2035 C   0  0  0  0  0  0  0  0  0  0  0  0
    8.6913  -12.1464   14.0211 N   0  0  0  0  0  0  0  0  0  0  0  0
    7.4202  -12.5393   13.9574 N   0  0  0  0  0  0  0  0  0  0  0  0
    0.8316  -12.1812   13.2759 H   0  0  0  0  0  0  0  0  0  0  0  0
    1.2585  -13.1474   14.0334 H   0  0  0  0  0  0  0  0  0  0  0  0
    1.7742  -11.4424   13.5874 H   0  0  0  0  0  0  0  0  0  0  0  0
    1.4683  -12.5504   16.0836 H   0  0  0  0  0  0  0  0  0  0  0  0
    1.8518  -14.4077   16.6039 H   0  0  0  0  0  0  0  0  0  0  0  0
    0.0409  -14.3714   16.3503 H   0  0  0  0  0  0  0  0  0  0  0  0
    0.5168  -13.7626   18.0013 H   0  0  0  0  0  0  0  0  0  0  0  0
   -2.3839  -14.6587   16.5901 H   0  0  0  0  0  0  0  0  0  0  0  0
   -2.8805  -17.7263   20.2802 H   0  0  0  0  0  0  0  0  0  0  0  0
   -3.0144  -20.1448   19.0293 H   0  0  0  0  0  0  0  0  0  0  0  0
   -5.4572  -18.9767   16.4814 H   0  0  0  0  0  0  0  0  0  0  0  0
   -6.4740  -17.8277   19.1027 H   0  0  0  0  0  0  0  0  0  0  0  0
   -6.1389  -19.4992   18.6772 H   0  0  0  0  0  0  0  0  0  0  0  0
   -7.8943  -19.6108   17.0845 H   0  0  0  0  0  0  0  0  0  0  0  0
   -8.6344  -18.5990   18.3331 H   0  0  0  0  0  0  0  0  0  0  0  0
   -8.4691  -17.7808   15.7197 H   0  0  0  0  0  0  0  0  0  0  0  0
   -8.3383  -16.6298   17.0488 H   0  0  0  0  0  0  0  0  0  0  0  0
   -6.2335  -17.4009   15.1574 H   0  0  0  0  0  0  0  0  0  0  0  0
   -6.2475  -16.1362   16.3673 H   0  0  0  0  0  0  0  0  0  0  0  0
    7.8932  -11.1536   16.9159 H   0  0  0  0  0  0  0  0  0  0  0  0
   10.0893  -11.3510   15.4278 H   0  0  0  0  0  0  0  0  0  0  0  0
    9.2702  -12.3202   13.2079 H   0  0  0  0  0  0  0  0  0  0  0  0
  1  2  1  0
  2  3  1  0
  3  4  1  0
  4  5  1  0
  5  6  1  0
  6  7  2  0
  6  8  1  0
  8  9  2  0
  9 10  1  0
 10 11  2  0
 11 12  1  0
 12 13  1  0
 13 14  1  0
 14 15  1  0
 15 16  1  0
 16 17  1  0
  2 18  1  0
 18 19  2  0
 18 20  1  0
 20 21  1  0
 21 22  2  0
 22 23  1  0
 23 24  1  0
 12  8  1  0
 17 13  1  0
 24 20  2  0
  1 25  1  0
  1 26  1  0
  1 27  1  0
  3 28  1  0
  3 29  1  0
  4 30  1  0
  4 31  1  0
  5 32  1  0
  9 33  1  0
 10 34  1  0
 13 35  1  0
 14 36  1  0
 14 37  1  0
 15 38  1  0
 15 39  1  0
 16 40  1  0
 16 41  1  0
 17 42  1  0
 17 43  1  0
 21 44  1  0
 22 45  1  0
 23 46  1  0
M  END
>  <Energy>  (43) 
1138.7840716880416

>  <compound_id>  (43) 
18708

>  <target_id>  (43) 
1

>  <reference_id>  (43) 
122

>  <inspiration_ids>  (43) 
[122, 96]

>  <energy_score>  (43) 
1052.7262998582332

>  <distance_score>  (43) 
12.828851251295589

>  <path>  (43) 
/opt/xchem-fragalysis-2/maxwin/BulkDock/SCRATCH/511025/C18708-P122/C18708-P122.minimised.mol

>  <scratch_subdir>  (43) 
/opt/xchem-fragalysis-2/maxwin/BulkDock/SCRATCH/511025/C18708-P122

>  <fragmenstein_runtime>  (43) 
38.72257661819458

>  <fragmenstein_outcome>  (43) 
too moved

>  <fragmenstein_mode>  (43) 
expansion

>  <fragmenstein_error>  (43) 


$$$$
C18708-P96
     RDKit          3D

 46 48  0  0  0  0  0  0  0  0999 V2000
    3.3649  -14.3588   21.6485 C   0  0  0  0  0  0  0  0  0  0  0  0
    3.6648  -13.1634   21.1130 N   0  0  0  0  0  0  0  0  0  0  0  0
    1.9425  -12.9977   21.0978 C   0  0  0  0  0  0  0  0  0  0  0  0
    0.0403  -13.8707   20.4046 C   0  0  0  0  0  0  0  0  0  0  0  0
   -0.6324  -15.5330   19.7679 N   0  0  0  0  0  0  0  0  0  0  0  0
   -2.0630  -15.9032   18.9669 C   0  0  0  0  0  0  0  0  0  0  0  0
   -2.8886  -15.1331   18.5807 O   0  0  0  0  0  0  0  0  0  0  0  0
   -2.5394  -17.4343   18.6413 C   0  0  0  0  0  0  0  0  0  0  0  0
   -2.1541  -18.3945   17.6886 C   0  0  0  0  0  0  0  0  0  0  0  0
   -2.6805  -19.6611   18.0871 C   0  0  0  0  0  0  0  0  0  0  0  0
   -3.4978  -19.4465   19.1085 N   0  0  0  0  0  0  0  0  0  0  0  0
   -3.8505  -18.1401   18.7861 N   0  0  0  0  0  0  0  0  0  0  0  0
   -5.0963  -18.2347   18.0126 C   0  0  0  0  0  0  0  0  0  0  0  0
   -6.4072  -18.1119   18.7828 C   0  0  0  0  0  0  0  0  0  0  0  0
   -7.4704  -18.2873   17.6936 C   0  0  0  0  0  0  0  0  0  0  0  0
   -6.7771  -18.0332   16.3438 C   0  0  0  0  0  0  0  0  0  0  0  0
   -5.3309  -17.6171   16.6512 C   0  0  0  0  0  0  0  0  0  0  0  0
    4.4696  -12.5997   19.1866 C   0  0  0  0  0  0  0  0  0  0  0  0
    4.7768  -13.4834   17.9079 O   0  0  0  0  0  0  0  0  0  0  0  0
    5.0415  -11.0231   18.8525 C   0  0  0  0  0  0  0  0  0  0  0  0
    6.4431  -11.0660   18.2265 C   0  0  0  0  0  0  0  0  0  0  0  0
    6.3481  -10.6232   16.9401 C   0  0  0  0  0  0  0  0  0  0  0  0
    5.1137  -10.1203   16.9086 N   0  0  0  0  0  0  0  0  0  0  0  0
    4.4460  -10.1869   18.0662 N   0  0  0  0  0  0  0  0  0  0  0  0
    2.4399  -14.2967   21.9722 H   0  0  0  0  0  0  0  0  0  0  0  0
    3.3089  -15.4168   21.7376 H   0  0  0  0  0  0  0  0  0  0  0  0
    3.9869  -14.0849   22.5499 H   0  0  0  0  0  0  0  0  0  0  0  0
    1.8366  -12.0784   21.7198 H   0  0  0  0  0  0  0  0  0  0  0  0
    2.2466  -12.7003   20.0498 H   0  0  0  0  0  0  0  0  0  0  0  0
   -0.8210  -13.2727   20.7855 H   0  0  0  0  0  0  0  0  0  0  0  0
    0.5508  -13.9320   19.3883 H   0  0  0  0  0  0  0  0  0  0  0  0
   -0.1740  -16.3911   20.0444 H   0  0  0  0  0  0  0  0  0  0  0  0
   -1.3900  -18.3015   16.9470 H   0  0  0  0  0  0  0  0  0  0  0  0
   -2.4459  -20.6602   17.7428 H   0  0  0  0  0  0  0  0  0  0  0  0
   -5.1319  -19.3064   17.7316 H   0  0  0  0  0  0  0  0  0  0  0  0
   -6.5050  -18.8884   19.5502 H   0  0  0  0  0  0  0  0  0  0  0  0
   -6.5146  -17.1591   19.2964 H   0  0  0  0  0  0  0  0  0  0  0  0
   -8.3196  -17.6153   17.8523 H   0  0  0  0  0  0  0  0  0  0  0  0
   -7.8679  -19.3091   17.7139 H   0  0  0  0  0  0  0  0  0  0  0  0
   -6.7776  -18.9623   15.7602 H   0  0  0  0  0  0  0  0  0  0  0  0
   -7.2990  -17.2845   15.7398 H   0  0  0  0  0  0  0  0  0  0  0  0
   -4.6677  -18.0348   15.8893 H   0  0  0  0  0  0  0  0  0  0  0  0
   -5.2073  -16.5401   16.6517 H   0  0  0  0  0  0  0  0  0  0  0  0
    7.2891  -11.6804   18.5119 H   0  0  0  0  0  0  0  0  0  0  0  0
    7.0096  -10.6458   16.0863 H   0  0  0  0  0  0  0  0  0  0  0  0
    4.6149   -9.7358   16.0989 H   0  0  0  0  0  0  0  0  0  0  0  0
  1  2  1  0
  2  3  1  0
  3  4  1  0
  4  5  1  0
  5  6  1  0
  6  7  2  0
  6  8  1  0
  8  9  2  0
  9 10  1  0
 10 11  2  0
 11 12  1  0
 12 13  1  0
 13 14  1  0
 14 15  1  0
 15 16  1  0
 16 17  1  0
  2 18  1  0
 18 19  2  0
 18 20  1  0
 20 21  1  0
 21 22  2  0
 22 23  1  0
 23 24  1  0
 12  8  1  0
 17 13  1  0
 24 20  2  0
  1 25  1  0
  1 26  1  0
  1 27  1  0
  3 28  1  0
  3 29  1  0
  4 30  1  0
  4 31  1  0
  5 32  1  0
  9 33  1  0
 10 34  1  0
 13 35  1  0
 14 36  1  0
 14 37  1  0
 15 38  1  0
 15 39  1  0
 16 40  1  0
 16 41  1  0
 17 42  1  0
 17 43  1  0
 21 44  1  0
 22 45  1  0
 23 46  1  0
M  END
>  <Energy>  (44) 
920.40321475022176

>  <compound_id>  (44) 
18708

>  <target_id>  (44) 
1

>  <reference_id>  (44) 
96

>  <inspiration_ids>  (44) 
[122, 96]

>  <energy_score>  (44) 
834.3454429204081

>  <distance_score>  (44) 
13.167247994591829

>  <path>  (44) 
/opt/xchem-fragalysis-2/maxwin/BulkDock/SCRATCH/511025/C18708-P96/C18708-P96.minimised.mol

>  <scratch_subdir>  (44) 
/opt/xchem-fragalysis-2/maxwin/BulkDock/SCRATCH/511025/C18708-P96

>  <fragmenstein_runtime>  (44) 
39.320894718170166

>  <fragmenstein_outcome>  (44) 
too moved

>  <fragmenstein_mode>  (44) 
expansion

>  <fragmenstein_error>  (44) 


$$$$
C55202-P28
     RDKit          3D

 42 43  0  0  0  0  0  0  0  0999 V2000
  -12.2000  -21.1856   25.1849 C   0  0  0  0  0  0  0  0  0  0  0  0
  -12.2361  -22.7097   25.3009 C   0  0  0  0  0  0  0  0  0  0  0  0
  -12.5960  -22.3748   23.5133 C   0  0  0  0  0  0  0  0  0  0  0  0
  -11.3475  -21.7001   22.4225 C   0  0  0  0  0  0  0  0  0  0  0  0
  -10.9509  -21.6940   20.8487 N   0  0  0  0  0  0  0  0  0  0  0  0
   -9.5167  -21.2089   20.0523 C   0  0  0  0  0  0  0  0  0  0  0  0
   -8.5830  -20.7866   20.6229 O   0  0  0  0  0  0  0  0  0  0  0  0
   -9.1504  -21.2048   18.0362 C   0  0  0  0  0  0  0  0  0  0  0  0
   -9.5398  -22.1384   16.3098 C   0  0  0  0  0  0  0  0  0  0  0  0
   -9.8958  -21.3701   15.1530 C   0  0  0  0  0  0  0  0  0  0  0  0
   -9.8983  -20.0952   15.7904 O   0  0  0  0  0  0  0  0  0  0  0  0
   -9.2976  -19.9491   17.4007 C   0  0  0  0  0  0  0  0  0  0  0  0
  -12.3297  -22.5311   27.0445 N   0  0  0  0  0  0  0  0  0  0  0  0
  -11.3210  -22.9301   28.1677 C   0  0  0  0  0  0  0  0  0  0  0  0
  -10.2731  -23.5318   28.0968 O   0  0  0  0  0  0  0  0  0  0  0  0
  -11.7093  -22.2808   29.8586 C   0  0  0  0  0  0  0  0  0  0  0  0
  -11.3013  -22.9513   31.5840 C   0  0  0  0  0  0  0  0  0  0  0  0
  -10.4426  -22.5106   32.5018 C   0  0  0  0  0  0  0  0  0  0  0  0
   -9.4464  -23.4145   32.9177 O   0  0  0  0  0  0  0  0  0  0  0  0
   -9.8308  -24.5143   32.4755 C   0  0  0  0  0  0  0  0  0  0  0  0
  -11.0131  -24.2823   32.0608 N   0  0  0  0  0  0  0  0  0  0  0  0
  -11.4215  -20.7582   24.5598 H   0  0  0  0  0  0  0  0  0  0  0  0
  -13.0669  -20.6948   24.7671 H   0  0  0  0  0  0  0  0  0  0  0  0
  -12.0542  -20.8269   26.1624 H   0  0  0  0  0  0  0  0  0  0  0  0
  -13.2230  -23.1955   25.3683 H   0  0  0  0  0  0  0  0  0  0  0  0
  -13.4590  -21.7178   23.4329 H   0  0  0  0  0  0  0  0  0  0  0  0
  -13.1721  -23.1968   23.1408 H   0  0  0  0  0  0  0  0  0  0  0  0
  -10.3934  -21.8744   22.9250 H   0  0  0  0  0  0  0  0  0  0  0  0
  -11.5248  -20.6388   22.5409 H   0  0  0  0  0  0  0  0  0  0  0  0
  -11.6376  -21.9371   20.1591 H   0  0  0  0  0  0  0  0  0  0  0  0
   -8.0581  -21.1510   18.0219 H   0  0  0  0  0  0  0  0  0  0  0  0
   -8.6401  -22.5573   15.7788 H   0  0  0  0  0  0  0  0  0  0  0  0
  -10.0314  -23.0911   16.2476 H   0  0  0  0  0  0  0  0  0  0  0  0
  -10.7009  -21.5646   14.4511 H   0  0  0  0  0  0  0  0  0  0  0  0
   -9.1422  -21.6519   14.4020 H   0  0  0  0  0  0  0  0  0  0  0  0
   -8.2356  -19.6201   17.6310 H   0  0  0  0  0  0  0  0  0  0  0  0
   -9.6987  -18.9547   17.5449 H   0  0  0  0  0  0  0  0  0  0  0  0
  -13.1426  -22.1063   27.4621 H   0  0  0  0  0  0  0  0  0  0  0  0
  -11.1138  -21.3625   29.8757 H   0  0  0  0  0  0  0  0  0  0  0  0
  -12.7120  -21.8683   29.8789 H   0  0  0  0  0  0  0  0  0  0  0  0
   -9.9410  -21.5465   32.4702 H   0  0  0  0  0  0  0  0  0  0  0  0
   -9.1823  -25.3530   32.5310 H   0  0  0  0  0  0  0  0  0  0  0  0
  1  2  1  0
  2  3  1  0
  3  4  1  0
  4  5  1  0
  5  6  1  0
  6  7  2  0
  6  8  1  0
  8  9  1  0
  9 10  1  0
 10 11  1  0
 11 12  1  0
  2 13  1  0
 13 14  1  0
 14 15  2  0
 14 16  1  0
 16 17  1  0
 17 18  2  0
 18 19  1  0
 19 20  1  0
 20 21  2  0
 12  8  1  0
 21 17  1  0
  1 22  1  0
  1 23  1  0
  1 24  1  0
  2 25  1  0
  3 26  1  0
  3 27  1  0
  4 28  1  0
  4 29  1  0
  5 30  1  0
  8 31  1  0
  9 32  1  0
  9 33  1  0
 10 34  1  0
 10 35  1  0
 12 36  1  0
 12 37  1  0
 13 38  1  0
 16 39  1  0
 16 40  1  0
 18 41  1  0
 20 42  1  0
M  END
>  <Energy>  (45) 
679.17742929988628

>  <compound_id>  (45) 
55202

>  <target_id>  (45) 
1

>  <reference_id>  (45) 
28

>  <inspiration_ids>  (45) 
[28, 88]

>  <energy_score>  (45) 
656.3470043035846

>  <distance_score>  (45) 
4.56934555172147

>  <path>  (45) 
/opt/xchem-fragalysis-2/maxwin/BulkDock/SCRATCH/511025/C55202-P28/C55202-P28.minimised.mol

>  <scratch_subdir>  (45) 
/opt/xchem-fragalysis-2/maxwin/BulkDock/SCRATCH/511025/C55202-P28

>  <fragmenstein_runtime>  (45) 
25.437581539154053

>  <fragmenstein_outcome>  (45) 
too moved

>  <fragmenstein_mode>  (45) 
expansion

>  <fragmenstein_error>  (45) 


$$$$
C55202-P88
     RDKit          3D

 42 43  0  0  0  0  0  0  0  0999 V2000
  -11.6890  -26.5773   27.2557 C   0  0  0  0  0  0  0  0  0  0  0  0
  -10.9656  -25.9523   25.9889 C   0  0  0  0  0  0  0  0  0  0  0  0
  -11.3914  -26.7806   24.4194 C   0  0  0  0  0  0  0  0  0  0  0  0
  -10.5442  -26.6739   22.4375 C   0  0  0  0  0  0  0  0  0  0  0  0
  -10.8587  -25.1731   20.9763 N   0  0  0  0  0  0  0  0  0  0  0  0
   -9.7481  -24.2382   19.9410 C   0  0  0  0  0  0  0  0  0  0  0  0
   -8.6335  -24.5029   20.2560 O   0  0  0  0  0  0  0  0  0  0  0  0
   -9.8913  -22.8702   17.9948 C   0  0  0  0  0  0  0  0  0  0  0  0
   -9.2207  -22.9944   16.0121 C   0  0  0  0  0  0  0  0  0  0  0  0
   -9.8222  -22.8173   14.6001 C   0  0  0  0  0  0  0  0  0  0  0  0
  -10.6157  -23.8794   14.7223 O   0  0  0  0  0  0  0  0  0  0  0  0
  -10.2220  -24.0235   16.1435 C   0  0  0  0  0  0  0  0  0  0  0  0
  -11.4513  -24.6281   26.0936 N   0  0  0  0  0  0  0  0  0  0  0  0
  -11.0222  -23.4347   25.4886 C   0  0  0  0  0  0  0  0  0  0  0  0
  -10.0873  -23.2103   24.7896 O   0  0  0  0  0  0  0  0  0  0  0  0
  -12.0576  -22.3840   25.7858 C   0  0  0  0  0  0  0  0  0  0  0  0
  -13.4849  -22.8679   25.7446 C   0  0  0  0  0  0  0  0  0  0  0  0
  -14.5695  -22.2776   25.1493 C   0  0  0  0  0  0  0  0  0  0  0  0
  -15.6706  -23.0361   25.3918 O   0  0  0  0  0  0  0  0  0  0  0  0
  -15.2119  -24.0406   26.1827 C   0  0  0  0  0  0  0  0  0  0  0  0
  -13.9241  -23.9946   26.4324 N   0  0  0  0  0  0  0  0  0  0  0  0
  -12.0954  -25.8299   27.9506 H   0  0  0  0  0  0  0  0  0  0  0  0
  -12.5229  -27.2227   26.9589 H   0  0  0  0  0  0  0  0  0  0  0  0
  -10.9935  -27.1421   27.8849 H   0  0  0  0  0  0  0  0  0  0  0  0
   -9.9031  -25.9928   26.1477 H   0  0  0  0  0  0  0  0  0  0  0  0
  -12.3894  -26.1985   24.6889 H   0  0  0  0  0  0  0  0  0  0  0  0
  -12.0314  -27.6771   24.5988 H   0  0  0  0  0  0  0  0  0  0  0  0
  -11.0091  -26.1567   23.7087 H   0  0  0  0  0  0  0  0  0  0  0  0
  -10.3258  -27.5392   21.9122 H   0  0  0  0  0  0  0  0  0  0  0  0
  -11.7951  -24.9963   20.6243 H   0  0  0  0  0  0  0  0  0  0  0  0
   -9.3445  -21.7899   18.0524 H   0  0  0  0  0  0  0  0  0  0  0  0
   -8.1768  -22.8165   15.6707 H   0  0  0  0  0  0  0  0  0  0  0  0
   -8.4722  -23.9117   15.9279 H   0  0  0  0  0  0  0  0  0  0  0  0
   -9.1170  -23.0481   13.7974 H   0  0  0  0  0  0  0  0  0  0  0  0
  -10.3913  -21.9398   14.3774 H   0  0  0  0  0  0  0  0  0  0  0  0
  -10.8666  -24.9884   16.3944 H   0  0  0  0  0  0  0  0  0  0  0  0
   -9.5411  -24.9750   15.7510 H   0  0  0  0  0  0  0  0  0  0  0  0
  -12.3450  -24.4619   26.5569 H   0  0  0  0  0  0  0  0  0  0  0  0
  -11.9373  -21.5869   25.0430 H   0  0  0  0  0  0  0  0  0  0  0  0
  -11.8024  -22.0281   26.7901 H   0  0  0  0  0  0  0  0  0  0  0  0
  -14.7170  -21.3571   24.6101 H   0  0  0  0  0  0  0  0  0  0  0  0
  -15.9404  -24.7605   26.5289 H   0  0  0  0  0  0  0  0  0  0  0  0
  1  2  1  0
  2  3  1  0
  3  4  1  0
  4  5  1  0
  5  6  1  0
  6  7  2  0
  6  8  1  0
  8  9  1  0
  9 10  1  0
 10 11  1  0
 11 12  1  0
  2 13  1  0
 13 14  1  0
 14 15  2  0
 14 16  1  0
 16 17  1  0
 17 18  2  0
 18 19  1  0
 19 20  1  0
 20 21  2  0
 12  8  1  0
 21 17  1  0
  1 22  1  0
  1 23  1  0
  1 24  1  0
  2 25  1  0
  3 26  1  0
  3 27  1  0
  4 28  1  0
  4 29  1  0
  5 30  1  0
  8 31  1  0
  9 32  1  0
  9 33  1  0
 10 34  1  0
 10 35  1  0
 12 36  1  0
 12 37  1  0
 13 38  1  0
 16 39  1  0
 16 40  1  0
 18 41  1  0
 20 42  1  0
M  END
>  <Energy>  (46) 
1350.218533750691

>  <compound_id>  (46) 
55202

>  <target_id>  (46) 
1

>  <reference_id>  (46) 
88

>  <inspiration_ids>  (46) 
[28, 88]

>  <energy_score>  (46) 
1327.3881087543964

>  <distance_score>  (46) 
5.9930061858777846

>  <path>  (46) 
/opt/xchem-fragalysis-2/maxwin/BulkDock/SCRATCH/511025/C55202-P88/C55202-P88.minimised.mol

>  <scratch_subdir>  (46) 
/opt/xchem-fragalysis-2/maxwin/BulkDock/SCRATCH/511025/C55202-P88

>  <fragmenstein_runtime>  (46) 
23.88101625442505

>  <fragmenstein_outcome>  (46) 
too moved

>  <fragmenstein_mode>  (46) 
expansion

>  <fragmenstein_error>  (46) 


$$$$
C43959-P28
     RDKit          3D

 45 46  0  0  0  0  0  0  0  0999 V2000
  -12.1216  -28.2202   18.6358 C   0  0  0  0  0  0  0  0  0  0  0  0
  -10.8431  -26.9685   18.4544 C   0  0  0  0  0  0  0  0  0  0  0  0
  -11.8333  -26.3042   17.3470 C   0  0  0  0  0  0  0  0  0  0  0  0
  -12.1281  -27.2344   16.1183 C   0  0  0  0  0  0  0  0  0  0  0  0
  -12.0259  -26.5643   14.8569 N   0  0  0  0  0  0  0  0  0  0  0  0
  -10.8914  -26.0475   14.1608 C   0  0  0  0  0  0  0  0  0  0  0  0
   -9.7461  -25.9714   14.4872 O   0  0  0  0  0  0  0  0  0  0  0  0
  -11.2987  -25.5385   12.7696 C   0  0  0  0  0  0  0  0  0  0  0  0
  -10.1560  -24.7854   12.1081 C   0  0  0  0  0  0  0  0  0  0  0  0
  -10.2882  -23.4104   12.7292 C   0  0  0  0  0  0  0  0  0  0  0  0
  -11.6919  -23.2066   12.9129 O   0  0  0  0  0  0  0  0  0  0  0  0
  -12.3647  -24.4599   12.8049 C   0  0  0  0  0  0  0  0  0  0  0  0
  -10.4817  -26.7685   20.4770 N   0  0  0  0  0  0  0  0  0  0  0  0
  -10.4218  -28.0158   21.8177 C   0  0  0  0  0  0  0  0  0  0  0  0
  -10.4565  -29.3918   21.7124 O   0  0  0  0  0  0  0  0  0  0  0  0
  -10.5383  -27.4191   23.9166 C   0  0  0  0  0  0  0  0  0  0  0  0
  -11.1407  -26.3785   25.3868 C   0  0  0  0  0  0  0  0  0  0  0  0
  -10.4670  -25.2574   25.9013 C   0  0  0  0  0  0  0  0  0  0  0  0
  -11.1592  -24.3012   26.6121 C   0  0  0  0  0  0  0  0  0  0  0  0
  -12.5129  -24.4457   26.7215 C   0  0  0  0  0  0  0  0  0  0  0  0
  -13.1730  -25.6052   26.5030 N   0  0  0  0  0  0  0  0  0  0  0  0
  -12.4387  -26.5899   25.9477 C   0  0  0  0  0  0  0  0  0  0  0  0
  -11.9238  -28.9572   19.4071 H   0  0  0  0  0  0  0  0  0  0  0  0
  -12.2384  -28.8340   17.7429 H   0  0  0  0  0  0  0  0  0  0  0  0
  -13.0712  -27.7453   18.9077 H   0  0  0  0  0  0  0  0  0  0  0  0
  -10.0459  -27.4191   17.8139 H   0  0  0  0  0  0  0  0  0  0  0  0
  -12.7996  -26.0088   17.7745 H   0  0  0  0  0  0  0  0  0  0  0  0
  -11.3814  -25.4638   16.8531 H   0  0  0  0  0  0  0  0  0  0  0  0
  -13.1385  -27.6521   16.1732 H   0  0  0  0  0  0  0  0  0  0  0  0
  -11.3890  -28.0401   16.0563 H   0  0  0  0  0  0  0  0  0  0  0  0
  -12.8565  -26.3916   14.3070 H   0  0  0  0  0  0  0  0  0  0  0  0
  -11.6103  -26.4096   12.1829 H   0  0  0  0  0  0  0  0  0  0  0  0
  -10.3538  -24.7308   11.0336 H   0  0  0  0  0  0  0  0  0  0  0  0
   -9.1602  -25.2158   12.2421 H   0  0  0  0  0  0  0  0  0  0  0  0
   -9.8068  -23.3507   13.7103 H   0  0  0  0  0  0  0  0  0  0  0  0
   -9.8822  -22.6183   12.0966 H   0  0  0  0  0  0  0  0  0  0  0  0
  -12.9253  -24.4465   11.8632 H   0  0  0  0  0  0  0  0  0  0  0  0
  -13.0890  -24.5280   13.6190 H   0  0  0  0  0  0  0  0  0  0  0  0
  -10.5279  -25.8075   20.9114 H   0  0  0  0  0  0  0  0  0  0  0  0
   -9.5924  -27.6971   24.5463 H   0  0  0  0  0  0  0  0  0  0  0  0
  -11.3226  -27.8955   24.5454 H   0  0  0  0  0  0  0  0  0  0  0  0
   -9.4565  -24.9745   25.6637 H   0  0  0  0  0  0  0  0  0  0  0  0
  -10.6982  -23.4254   27.0351 H   0  0  0  0  0  0  0  0  0  0  0  0
  -13.0651  -23.5933   27.0700 H   0  0  0  0  0  0  0  0  0  0  0  0
  -12.9981  -27.5126   25.8102 H   0  0  0  0  0  0  0  0  0  0  0  0
  1  2  1  0
  2  3  1  0
  3  4  1  0
  4  5  1  0
  5  6  1  0
  6  7  2  0
  6  8  1  0
  8  9  1  0
  9 10  1  0
 10 11  1  0
 11 12  1  0
  2 13  1  0
 13 14  1  0
 14 15  2  0
 14 16  1  0
 16 17  1  0
 17 18  2  0
 18 19  1  0
 19 20  2  0
 20 21  1  0
 21 22  2  0
 12  8  1  0
 22 17  1  0
  1 23  1  0
  1 24  1  0
  1 25  1  0
  2 26  1  0
  3 27  1  0
  3 28  1  0
  4 29  1  0
  4 30  1  0
  5 31  1  0
  8 32  1  0
  9 33  1  0
  9 34  1  0
 10 35  1  0
 10 36  1  0
 12 37  1  0
 12 38  1  0
 13 39  1  0
 16 40  1  0
 16 41  1  0
 18 42  1  0
 19 43  1  0
 20 44  1  0
 22 45  1  0
M  END
>  <Energy>  (47) 
509.96724106796722

>  <compound_id>  (47) 
43959

>  <target_id>  (47) 
1

>  <reference_id>  (47) 
28

>  <inspiration_ids>  (47) 
[28, 88]

>  <energy_score>  (47) 
473.1428763606615

>  <distance_score>  (47) 
4.544227731941827

>  <path>  (47) 
/opt/xchem-fragalysis-2/maxwin/BulkDock/SCRATCH/511025/C43959-P28/C43959-P28.minimised.mol

>  <scratch_subdir>  (47) 
/opt/xchem-fragalysis-2/maxwin/BulkDock/SCRATCH/511025/C43959-P28

>  <fragmenstein_runtime>  (47) 
23.646355390548706

>  <fragmenstein_outcome>  (47) 
too moved

>  <fragmenstein_mode>  (47) 
expansion

>  <fragmenstein_error>  (47) 


$$$$
C43959-P88
     RDKit          3D

 45 46  0  0  0  0  0  0  0  0999 V2000
  -13.1703  -29.0917   17.9292 C   0  0  0  0  0  0  0  0  0  0  0  0
  -11.6850  -28.7721   18.0992 C   0  0  0  0  0  0  0  0  0  0  0  0
  -11.1862  -28.0398   16.8406 C   0  0  0  0  0  0  0  0  0  0  0  0
  -10.8288  -29.0473   15.7465 C   0  0  0  0  0  0  0  0  0  0  0  0
  -10.6611  -28.4651   14.4418 N   0  0  0  0  0  0  0  0  0  0  0  0
  -10.2877  -27.1352   14.0438 C   0  0  0  0  0  0  0  0  0  0  0  0
  -10.0978  -26.1516   14.6940 O   0  0  0  0  0  0  0  0  0  0  0  0
  -10.1855  -27.0913   12.5150 C   0  0  0  0  0  0  0  0  0  0  0  0
   -9.4601  -25.8737   11.9909 C   0  0  0  0  0  0  0  0  0  0  0  0
  -10.5570  -24.8465   11.8882 C   0  0  0  0  0  0  0  0  0  0  0  0
  -11.7073  -25.5864   11.4502 O   0  0  0  0  0  0  0  0  0  0  0  0
  -11.5683  -26.9428   11.9017 C   0  0  0  0  0  0  0  0  0  0  0  0
  -11.4322  -28.0016   19.3456 N   0  0  0  0  0  0  0  0  0  0  0  0
  -10.6714  -28.4960   21.0449 C   0  0  0  0  0  0  0  0  0  0  0  0
  -10.3923  -29.6704   21.1061 O   0  0  0  0  0  0  0  0  0  0  0  0
  -10.4688  -27.2541   22.7750 C   0  0  0  0  0  0  0  0  0  0  0  0
  -11.3262  -26.5475   24.5702 C   0  0  0  0  0  0  0  0  0  0  0  0
  -12.5825  -26.9250   25.2952 C   0  0  0  0  0  0  0  0  0  0  0  0
  -13.0165  -26.4326   26.5548 C   0  0  0  0  0  0  0  0  0  0  0  0
  -12.2572  -25.5027   27.2132 C   0  0  0  0  0  0  0  0  0  0  0  0
  -11.1506  -24.9995   26.6760 N   0  0  0  0  0  0  0  0  0  0  0  0
  -10.7683  -25.4795   25.4441 C   0  0  0  0  0  0  0  0  0  0  0  0
  -13.4875  -29.8145   18.6843 H   0  0  0  0  0  0  0  0  0  0  0  0
  -13.3912  -29.5385   16.9555 H   0  0  0  0  0  0  0  0  0  0  0  0
  -13.7853  -28.1921   18.0415 H   0  0  0  0  0  0  0  0  0  0  0  0
  -11.1614  -29.7248   18.2116 H   0  0  0  0  0  0  0  0  0  0  0  0
  -11.9485  -27.3320   16.4907 H   0  0  0  0  0  0  0  0  0  0  0  0
  -10.2995  -27.4396   17.0671 H   0  0  0  0  0  0  0  0  0  0  0  0
  -11.5996  -29.8158   15.6366 H   0  0  0  0  0  0  0  0  0  0  0  0
   -9.8916  -29.5570   15.9945 H   0  0  0  0  0  0  0  0  0  0  0  0
  -10.8148  -29.0273   13.6132 H   0  0  0  0  0  0  0  0  0  0  0  0
   -9.6830  -28.0062   12.1792 H   0  0  0  0  0  0  0  0  0  0  0  0
   -9.0951  -26.1142   10.9867 H   0  0  0  0  0  0  0  0  0  0  0  0
   -8.6148  -25.5387   12.5896 H   0  0  0  0  0  0  0  0  0  0  0  0
  -10.7883  -24.3798   12.8510 H   0  0  0  0  0  0  0  0  0  0  0  0
  -10.3252  -24.0642   11.1617 H   0  0  0  0  0  0  0  0  0  0  0  0
  -11.6785  -27.5885   11.0242 H   0  0  0  0  0  0  0  0  0  0  0  0
  -12.3882  -27.1646   12.5922 H   0  0  0  0  0  0  0  0  0  0  0  0
  -11.5559  -26.9969   19.3438 H   0  0  0  0  0  0  0  0  0  0  0  0
  -11.2396  -27.6076   23.4044 H   0  0  0  0  0  0  0  0  0  0  0  0
   -9.4556  -27.6331   23.2773 H   0  0  0  0  0  0  0  0  0  0  0  0
  -13.3073  -27.6033   24.8995 H   0  0  0  0  0  0  0  0  0  0  0  0
  -13.9417  -26.7928   26.9939 H   0  0  0  0  0  0  0  0  0  0  0  0
  -12.5404  -25.1065   28.1822 H   0  0  0  0  0  0  0  0  0  0  0  0
  -10.0364  -24.7730   25.0775 H   0  0  0  0  0  0  0  0  0  0  0  0
  1  2  1  0
  2  3  1  0
  3  4  1  0
  4  5  1  0
  5  6  1  0
  6  7  2  0
  6  8  1  0
  8  9  1  0
  9 10  1  0
 10 11  1  0
 11 12  1  0
  2 13  1  0
 13 14  1  0
 14 15  2  0
 14 16  1  0
 16 17  1  0
 17 18  2  0
 18 19  1  0
 19 20  2  0
 20 21  1  0
 21 22  2  0
 12  8  1  0
 22 17  1  0
  1 23  1  0
  1 24  1  0
  1 25  1  0
  2 26  1  0
  3 27  1  0
  3 28  1  0
  4 29  1  0
  4 30  1  0
  5 31  1  0
  8 32  1  0
  9 33  1  0
  9 34  1  0
 10 35  1  0
 10 36  1  0
 12 37  1  0
 12 38  1  0
 13 39  1  0
 16 40  1  0
 16 41  1  0
 18 42  1  0
 19 43  1  0
 20 44  1  0
 22 45  1  0
M  END
>  <Energy>  (48) 
434.663427615888

>  <compound_id>  (48) 
43959

>  <target_id>  (48) 
1

>  <reference_id>  (48) 
88

>  <inspiration_ids>  (48) 
[28, 88]

>  <energy_score>  (48) 
397.8390629085921

>  <distance_score>  (48) 
4.895908709744033

>  <path>  (48) 
/opt/xchem-fragalysis-2/maxwin/BulkDock/SCRATCH/511025/C43959-P88/C43959-P88.minimised.mol

>  <scratch_subdir>  (48) 
/opt/xchem-fragalysis-2/maxwin/BulkDock/SCRATCH/511025/C43959-P88

>  <fragmenstein_runtime>  (48) 
12.162591457366943

>  <fragmenstein_outcome>  (48) 
too moved

>  <fragmenstein_mode>  (48) 
expansion

>  <fragmenstein_error>  (48) 


$$$$
C43960-P28
     RDKit          3D

 45 46  0  0  0  0  0  0  0  0999 V2000
  -12.4603  -30.6516   19.1209 C   0  0  0  0  0  0  0  0  0  0  0  0
  -12.1788  -29.1602   18.9134 C   0  0  0  0  0  0  0  0  0  0  0  0
  -11.9724  -28.5015   17.4974 C   0  0  0  0  0  0  0  0  0  0  0  0
  -12.7483  -29.0856   16.3269 C   0  0  0  0  0  0  0  0  0  0  0  0
  -12.3566  -28.4012   15.1081 N   0  0  0  0  0  0  0  0  0  0  0  0
  -12.4998  -27.0205   14.7100 C   0  0  0  0  0  0  0  0  0  0  0  0
  -13.0493  -26.1042   15.2515 O   0  0  0  0  0  0  0  0  0  0  0  0
  -11.6938  -26.7975   13.4074 C   0  0  0  0  0  0  0  0  0  0  0  0
  -11.3257  -27.9983   12.8560 F   0  0  0  0  0  0  0  0  0  0  0  0
  -10.4284  -25.9954   13.6705 C   0  0  0  0  0  0  0  0  0  0  0  0
  -10.7870  -24.6063   13.1968 C   0  0  0  0  0  0  0  0  0  0  0  0
  -11.6600  -24.8034   12.0818 O   0  0  0  0  0  0  0  0  0  0  0  0
  -12.4527  -25.9704   12.3779 C   0  0  0  0  0  0  0  0  0  0  0  0
  -11.6370  -28.2550   20.0190 N   0  0  0  0  0  0  0  0  0  0  0  0
  -10.5185  -28.6336   21.5891 C   0  0  0  0  0  0  0  0  0  0  0  0
  -10.0246  -29.8050   21.7715 O   0  0  0  0  0  0  0  0  0  0  0  0
  -10.3180  -27.2108   23.0028 C   0  0  0  0  0  0  0  0  0  0  0  0
  -10.7383  -27.1081   25.0339 C   0  0  0  0  0  0  0  0  0  0  0  0
  -11.9119  -27.5527   25.7137 C   0  0  0  0  0  0  0  0  0  0  0  0
  -12.8352  -26.6952   26.3602 C   0  0  0  0  0  0  0  0  0  0  0  0
  -12.5113  -25.3761   26.5179 C   0  0  0  0  0  0  0  0  0  0  0  0
  -11.2836  -24.9527   26.3113 N   0  0  0  0  0  0  0  0  0  0  0  0
  -10.4574  -25.8035   25.6840 C   0  0  0  0  0  0  0  0  0  0  0  0
  -12.2899  -31.2465   18.2188 H   0  0  0  0  0  0  0  0  0  0  0  0
  -13.5124  -30.8241   19.3767 H   0  0  0  0  0  0  0  0  0  0  0  0
  -11.8759  -31.0615   19.9493 H   0  0  0  0  0  0  0  0  0  0  0  0
  -13.2241  -28.8219   19.0316 H   0  0  0  0  0  0  0  0  0  0  0  0
  -10.9195  -28.4427   17.2123 H   0  0  0  0  0  0  0  0  0  0  0  0
  -12.2580  -27.4424   17.5950 H   0  0  0  0  0  0  0  0  0  0  0  0
  -12.5384  -30.1486   16.1854 H   0  0  0  0  0  0  0  0  0  0  0  0
  -13.8232  -28.9380   16.4672 H   0  0  0  0  0  0  0  0  0  0  0  0
  -11.7517  -28.8794   14.4387 H   0  0  0  0  0  0  0  0  0  0  0  0
  -10.1019  -25.9968   14.7150 H   0  0  0  0  0  0  0  0  0  0  0  0
   -9.6086  -26.3956   13.0622 H   0  0  0  0  0  0  0  0  0  0  0  0
  -11.3271  -24.0443   13.9619 H   0  0  0  0  0  0  0  0  0  0  0  0
   -9.9135  -24.0273   12.8852 H   0  0  0  0  0  0  0  0  0  0  0  0
  -13.4284  -25.6255   12.7351 H   0  0  0  0  0  0  0  0  0  0  0  0
  -12.6038  -26.5202   11.4441 H   0  0  0  0  0  0  0  0  0  0  0  0
  -11.8524  -27.2887   20.0037 H   0  0  0  0  0  0  0  0  0  0  0  0
   -9.1872  -27.4041   23.3087 H   0  0  0  0  0  0  0  0  0  0  0  0
  -11.1082  -27.6581   23.5043 H   0  0  0  0  0  0  0  0  0  0  0  0
  -12.2717  -28.5495   25.7098 H   0  0  0  0  0  0  0  0  0  0  0  0
  -13.7841  -27.0871   26.7108 H   0  0  0  0  0  0  0  0  0  0  0  0
  -13.1381  -24.6068   26.9285 H   0  0  0  0  0  0  0  0  0  0  0  0
   -9.5482  -25.2231   25.5394 H   0  0  0  0  0  0  0  0  0  0  0  0
  1  2  1  0
  2  3  1  0
  3  4  1  0
  4  5  1  0
  5  6  1  0
  6  7  2  0
  6  8  1  0
  8  9  1  0
  8 10  1  0
 10 11  1  0
 11 12  1  0
 12 13  1  0
  2 14  1  0
 14 15  1  0
 15 16  2  0
 15 17  1  0
 17 18  1  0
 18 19  2  0
 19 20  1  0
 20 21  2  0
 21 22  1  0
 22 23  2  0
 13  8  1  0
 23 18  1  0
  1 24  1  0
  1 25  1  0
  1 26  1  0
  2 27  1  0
  3 28  1  0
  3 29  1  0
  4 30  1  0
  4 31  1  0
  5 32  1  0
 10 33  1  0
 10 34  1  0
 11 35  1  0
 11 36  1  0
 13 37  1  0
 13 38  1  0
 14 39  1  0
 17 40  1  0
 17 41  1  0
 19 42  1  0
 20 43  1  0
 21 44  1  0
 23 45  1  0
M  END
>  <Energy>  (49) 
427.0304455868179

>  <compound_id>  (49) 
43960

>  <target_id>  (49) 
1

>  <reference_id>  (49) 
28

>  <inspiration_ids>  (49) 
[28, 88]

>  <energy_score>  (49) 
355.91152349702656

>  <distance_score>  (49) 
5.45664491210999

>  <path>  (49) 
/opt/xchem-fragalysis-2/maxwin/BulkDock/SCRATCH/511025/C43960-P28/C43960-P28.minimised.mol

>  <scratch_subdir>  (49) 
/opt/xchem-fragalysis-2/maxwin/BulkDock/SCRATCH/511025/C43960-P28

>  <fragmenstein_runtime>  (49) 
26.664629220962524

>  <fragmenstein_outcome>  (49) 
too moved

>  <fragmenstein_mode>  (49) 
expansion

>  <fragmenstein_error>  (49) 


$$$$
C43960-P88
     RDKit          3D

 45 46  0  0  0  0  0  0  0  0999 V2000
  -11.9353  -28.1439   18.9185 C   0  0  0  0  0  0  0  0  0  0  0  0
  -10.4008  -27.2626   19.5002 C   0  0  0  0  0  0  0  0  0  0  0  0
  -10.0759  -27.2987   17.5755 C   0  0  0  0  0  0  0  0  0  0  0  0
  -10.3709  -28.5380   16.6176 C   0  0  0  0  0  0  0  0  0  0  0  0
  -10.2963  -28.1031   15.2352 N   0  0  0  0  0  0  0  0  0  0  0  0
  -11.2148  -27.3305   14.4369 C   0  0  0  0  0  0  0  0  0  0  0  0
  -12.3099  -26.9170   14.6871 O   0  0  0  0  0  0  0  0  0  0  0  0
  -10.5203  -26.9817   13.1026 C   0  0  0  0  0  0  0  0  0  0  0  0
   -9.5432  -27.8978   12.8111 F   0  0  0  0  0  0  0  0  0  0  0  0
   -9.8628  -25.6192   13.1962 C   0  0  0  0  0  0  0  0  0  0  0  0
  -10.8325  -24.7121   12.4900 C   0  0  0  0  0  0  0  0  0  0  0  0
  -11.3835  -25.5032   11.4321 O   0  0  0  0  0  0  0  0  0  0  0  0
  -11.4771  -26.8538   11.9272 C   0  0  0  0  0  0  0  0  0  0  0  0
  -10.1543  -26.7148   21.5884 N   0  0  0  0  0  0  0  0  0  0  0  0
   -9.2463  -27.5023   23.2505 C   0  0  0  0  0  0  0  0  0  0  0  0
   -8.5051  -28.5117   23.3779 O   0  0  0  0  0  0  0  0  0  0  0  0
   -9.6153  -26.3421   25.1714 C   0  0  0  0  0  0  0  0  0  0  0  0
  -10.6321  -25.7519   26.4864 C   0  0  0  0  0  0  0  0  0  0  0  0
  -10.7948  -26.3403   27.7472 C   0  0  0  0  0  0  0  0  0  0  0  0
  -11.4560  -25.6696   28.7858 C   0  0  0  0  0  0  0  0  0  0  0  0
  -11.9420  -24.4011   28.5559 C   0  0  0  0  0  0  0  0  0  0  0  0
  -11.8146  -23.7783   27.3751 N   0  0  0  0  0  0  0  0  0  0  0  0
  -11.1507  -24.4380   26.3964 C   0  0  0  0  0  0  0  0  0  0  0  0
  -11.7671  -29.2233   18.8386 H   0  0  0  0  0  0  0  0  0  0  0  0
  -12.2219  -27.7664   17.9309 H   0  0  0  0  0  0  0  0  0  0  0  0
  -12.8697  -27.8409   19.3820 H   0  0  0  0  0  0  0  0  0  0  0  0
  -11.0061  -26.3856   19.0297 H   0  0  0  0  0  0  0  0  0  0  0  0
  -10.7642  -26.5368   17.1726 H   0  0  0  0  0  0  0  0  0  0  0  0
   -9.1094  -26.9928   17.1964 H   0  0  0  0  0  0  0  0  0  0  0  0
   -9.6421  -29.3472   16.7030 H   0  0  0  0  0  0  0  0  0  0  0  0
  -11.3614  -28.9797   16.7142 H   0  0  0  0  0  0  0  0  0  0  0  0
   -9.4173  -28.2045   14.7263 H   0  0  0  0  0  0  0  0  0  0  0  0
   -9.6890  -25.2811   14.2208 H   0  0  0  0  0  0  0  0  0  0  0  0
   -8.9087  -25.6353   12.6577 H   0  0  0  0  0  0  0  0  0  0  0  0
  -11.6462  -24.4088   13.1546 H   0  0  0  0  0  0  0  0  0  0  0  0
  -10.3510  -23.8208   12.0799 H   0  0  0  0  0  0  0  0  0  0  0  0
  -12.5229  -27.0385   12.1914 H   0  0  0  0  0  0  0  0  0  0  0  0
  -11.2081  -27.5289   11.1092 H   0  0  0  0  0  0  0  0  0  0  0  0
  -10.7108  -26.0043   21.7946 H   0  0  0  0  0  0  0  0  0  0  0  0
  -10.8181  -26.3620   24.9185 H   0  0  0  0  0  0  0  0  0  0  0  0
   -9.4931  -25.2597   24.9696 H   0  0  0  0  0  0  0  0  0  0  0  0
  -10.4023  -27.3108   28.0019 H   0  0  0  0  0  0  0  0  0  0  0  0
  -11.5649  -26.1288   29.7623 H   0  0  0  0  0  0  0  0  0  0  0  0
  -12.4430  -23.8335   29.3341 H   0  0  0  0  0  0  0  0  0  0  0  0
  -10.9878  -23.8122   25.5234 H   0  0  0  0  0  0  0  0  0  0  0  0
  1  2  1  0
  2  3  1  0
  3  4  1  0
  4  5  1  0
  5  6  1  0
  6  7  2  0
  6  8  1  0
  8  9  1  0
  8 10  1  0
 10 11  1  0
 11 12  1  0
 12 13  1  0
  2 14  1  0
 14 15  1  0
 15 16  2  0
 15 17  1  0
 17 18  1  0
 18 19  2  0
 19 20  1  0
 20 21  2  0
 21 22  1  0
 22 23  2  0
 13  8  1  0
 23 18  1  0
  1 24  1  0
  1 25  1  0
  1 26  1  0
  2 27  1  0
  3 28  1  0
  3 29  1  0
  4 30  1  0
  4 31  1  0
  5 32  1  0
 10 33  1  0
 10 34  1  0
 11 35  1  0
 11 36  1  0
 13 37  1  0
 13 38  1  0
 14 39  1  0
 17 40  1  0
 17 41  1  0
 19 42  1  0
 20 43  1  0
 21 44  1  0
 23 45  1  0
M  END
>  <Energy>  (50) 
844.21010338739563

>  <compound_id>  (50) 
43960

>  <target_id>  (50) 
1

>  <reference_id>  (50) 
88

>  <inspiration_ids>  (50) 
[28, 88]

>  <energy_score>  (50) 
773.0911812976016

>  <distance_score>  (50) 
4.661968421100227

>  <path>  (50) 
/opt/xchem-fragalysis-2/maxwin/BulkDock/SCRATCH/511025/C43960-P88/C43960-P88.minimised.mol

>  <scratch_subdir>  (50) 
/opt/xchem-fragalysis-2/maxwin/BulkDock/SCRATCH/511025/C43960-P88

>  <fragmenstein_runtime>  (50) 
17.679216623306274

>  <fragmenstein_outcome>  (50) 
too moved

>  <fragmenstein_mode>  (50) 
expansion

>  <fragmenstein_error>  (50) 


$$$$
C55212-P28
     RDKit          3D

 41 42  0  0  0  0  0  0  0  0999 V2000
  -11.9976  -27.9174   25.2145 O   0  0  0  0  0  0  0  0  0  0  0  0
  -11.0146  -27.2585   24.8608 C   0  0  0  0  0  0  0  0  0  0  0  0
  -10.5059  -26.4886   25.9834 C   0  0  0  0  0  0  0  0  0  0  0  0
  -10.8747  -25.3289   26.5424 C   0  0  0  0  0  0  0  0  0  0  0  0
  -12.1215  -24.6465   26.2950 C   0  0  0  0  0  0  0  0  0  0  0  0
  -13.2880  -25.3444   25.9877 C   0  0  0  0  0  0  0  0  0  0  0  0
  -14.2600  -24.6907   25.2435 C   0  0  0  0  0  0  0  0  0  0  0  0
  -14.0638  -23.3567   24.9271 C   0  0  0  0  0  0  0  0  0  0  0  0
  -12.9020  -22.7383   25.3612 C   0  0  0  0  0  0  0  0  0  0  0  0
  -11.9548  -23.3435   26.0833 N   0  0  0  0  0  0  0  0  0  0  0  0
  -10.4642  -27.1977   23.1788 O   0  0  0  0  0  0  0  0  0  0  0  0
  -10.5765  -27.7831   21.3078 C   0  0  0  0  0  0  0  0  0  0  0  0
  -11.9488  -28.1790   19.7746 C   0  0  0  0  0  0  0  0  0  0  0  0
  -12.0075  -27.3163   18.3801 C   0  0  0  0  0  0  0  0  0  0  0  0
  -12.7834  -28.0212   17.2548 C   0  0  0  0  0  0  0  0  0  0  0  0
  -12.3989  -27.5457   15.8339 C   0  0  0  0  0  0  0  0  0  0  0  0
  -11.0600  -28.0799   15.3169 C   0  0  0  0  0  0  0  0  0  0  0  0
  -10.2953  -26.8574   14.8647 C   0  0  0  0  0  0  0  0  0  0  0  0
  -11.3823  -25.8316   14.6805 C   0  0  0  0  0  0  0  0  0  0  0  0
  -12.3319  -26.1154   15.7237 O   0  0  0  0  0  0  0  0  0  0  0  0
  -10.3090  -27.1759   26.8119 H   0  0  0  0  0  0  0  0  0  0  0  0
  -10.3395  -24.9364   27.4031 H   0  0  0  0  0  0  0  0  0  0  0  0
  -13.4107  -26.3928   26.2326 H   0  0  0  0  0  0  0  0  0  0  0  0
  -15.1663  -25.2040   24.9365 H   0  0  0  0  0  0  0  0  0  0  0  0
  -14.8050  -22.7891   24.3788 H   0  0  0  0  0  0  0  0  0  0  0  0
  -12.6701  -21.7152   25.0843 H   0  0  0  0  0  0  0  0  0  0  0  0
  -10.2016  -26.8288   20.9575 H   0  0  0  0  0  0  0  0  0  0  0  0
  -10.3171  -28.7435   21.6630 H   0  0  0  0  0  0  0  0  0  0  0  0
  -13.0139  -28.1046   20.0044 H   0  0  0  0  0  0  0  0  0  0  0  0
  -11.8102  -29.2394   19.4914 H   0  0  0  0  0  0  0  0  0  0  0  0
  -12.5207  -26.3750   18.5918 H   0  0  0  0  0  0  0  0  0  0  0  0
  -11.0335  -27.0693   17.9632 H   0  0  0  0  0  0  0  0  0  0  0  0
  -12.6507  -29.1074   17.3119 H   0  0  0  0  0  0  0  0  0  0  0  0
  -13.8503  -27.8213   17.4146 H   0  0  0  0  0  0  0  0  0  0  0  0
  -13.1894  -27.8825   15.1504 H   0  0  0  0  0  0  0  0  0  0  0  0
  -10.5021  -28.6492   16.0652 H   0  0  0  0  0  0  0  0  0  0  0  0
  -11.2366  -28.7585   14.4740 H   0  0  0  0  0  0  0  0  0  0  0  0
   -9.6178  -26.5444   15.6664 H   0  0  0  0  0  0  0  0  0  0  0  0
   -9.7004  -27.0215   13.9626 H   0  0  0  0  0  0  0  0  0  0  0  0
  -11.8863  -25.9410   13.7137 H   0  0  0  0  0  0  0  0  0  0  0  0
  -11.0061  -24.8107   14.7696 H   0  0  0  0  0  0  0  0  0  0  0  0
  1  2  2  0
  2  3  1  0
  3  4  2  3
  4  5  1  0
  5  6  2  0
  6  7  1  0
  7  8  2  0
  8  9  1  0
  9 10  2  0
  2 11  1  0
 11 12  1  0
 12 13  1  0
 13 14  1  0
 14 15  1  0
 15 16  1  0
 16 17  1  0
 17 18  1  0
 18 19  1  0
 19 20  1  0
 10  5  1  0
 20 16  1  0
  3 21  1  0
  4 22  1  0
  6 23  1  0
  7 24  1  0
  8 25  1  0
  9 26  1  0
 12 27  1  0
 12 28  1  0
 13 29  1  0
 13 30  1  0
 14 31  1  0
 14 32  1  0
 15 33  1  0
 15 34  1  0
 16 35  1  0
 17 36  1  0
 17 37  1  0
 18 38  1  0
 18 39  1  0
 19 40  1  0
 19 41  1  0
M  END
>  <Energy>  (51) 
335.2219550499193

>  <compound_id>  (51) 
55212

>  <target_id>  (51) 
1

>  <reference_id>  (51) 
28

>  <inspiration_ids>  (51) 
[28, 88]

>  <energy_score>  (51) 
276.67152088313856

>  <distance_score>  (51) 
6.017416614728922

>  <path>  (51) 
/opt/xchem-fragalysis-2/maxwin/BulkDock/SCRATCH/511025/C55212-P28/C55212-P28.minimised.mol

>  <scratch_subdir>  (51) 
/opt/xchem-fragalysis-2/maxwin/BulkDock/SCRATCH/511025/C55212-P28

>  <fragmenstein_runtime>  (51) 
31.737096548080444

>  <fragmenstein_outcome>  (51) 
too moved

>  <fragmenstein_mode>  (51) 
expansion

>  <fragmenstein_error>  (51) 


$$$$
C55212-P88
     RDKit          3D

 41 42  0  0  0  0  0  0  0  0999 V2000
  -10.5261  -25.4564   25.3281 O   0  0  0  0  0  0  0  0  0  0  0  0
  -11.2528  -26.3158   24.7955 C   0  0  0  0  0  0  0  0  0  0  0  0
  -12.5558  -26.6303   25.5487 C   0  0  0  0  0  0  0  0  0  0  0  0
  -12.8242  -25.5883   26.3854 C   0  0  0  0  0  0  0  0  0  0  0  0
  -12.5186  -25.6075   27.8429 C   0  0  0  0  0  0  0  0  0  0  0  0
  -12.1903  -24.4035   28.4788 C   0  0  0  0  0  0  0  0  0  0  0  0
  -11.6815  -24.4271   29.7750 C   0  0  0  0  0  0  0  0  0  0  0  0
  -11.5212  -25.6493   30.4069 C   0  0  0  0  0  0  0  0  0  0  0  0
  -11.9067  -26.7928   29.7233 C   0  0  0  0  0  0  0  0  0  0  0  0
  -12.3953  -26.8039   28.4585 N   0  0  0  0  0  0  0  0  0  0  0  0
  -10.6484  -27.0349   23.2663 O   0  0  0  0  0  0  0  0  0  0  0  0
  -10.1140  -26.2394   21.5277 C   0  0  0  0  0  0  0  0  0  0  0  0
  -10.7717  -24.4876   20.6216 C   0  0  0  0  0  0  0  0  0  0  0  0
  -10.0821  -22.5806   19.8372 C   0  0  0  0  0  0  0  0  0  0  0  0
   -9.4408  -21.9106   17.8791 C   0  0  0  0  0  0  0  0  0  0  0  0
   -9.6138  -22.9615   16.0533 C   0  0  0  0  0  0  0  0  0  0  0  0
   -9.8479  -22.6560   14.5142 C   0  0  0  0  0  0  0  0  0  0  0  0
  -10.3685  -23.7447   13.5864 C   0  0  0  0  0  0  0  0  0  0  0  0
  -10.2251  -24.9380   14.4179 C   0  0  0  0  0  0  0  0  0  0  0  0
  -10.1511  -24.4336   15.7350 O   0  0  0  0  0  0  0  0  0  0  0  0
  -12.6316  -27.6390   25.9307 H   0  0  0  0  0  0  0  0  0  0  0  0
  -12.7173  -24.5746   25.9945 H   0  0  0  0  0  0  0  0  0  0  0  0
  -12.2580  -23.4542   27.9540 H   0  0  0  0  0  0  0  0  0  0  0  0
  -11.3955  -23.5031   30.2718 H   0  0  0  0  0  0  0  0  0  0  0  0
  -11.1013  -25.7049   31.4034 H   0  0  0  0  0  0  0  0  0  0  0  0
  -11.8139  -27.7740   30.1816 H   0  0  0  0  0  0  0  0  0  0  0  0
   -9.1920  -25.7235   21.4082 H   0  0  0  0  0  0  0  0  0  0  0  0
  -10.0364  -27.1905   20.9951 H   0  0  0  0  0  0  0  0  0  0  0  0
  -11.8207  -24.8039   20.3023 H   0  0  0  0  0  0  0  0  0  0  0  0
  -11.3584  -23.7066   21.1894 H   0  0  0  0  0  0  0  0  0  0  0  0
  -11.0278  -22.0298   20.1580 H   0  0  0  0  0  0  0  0  0  0  0  0
   -9.5622  -21.9896   20.6297 H   0  0  0  0  0  0  0  0  0  0  0  0
   -8.4483  -21.3952   17.9661 H   0  0  0  0  0  0  0  0  0  0  0  0
   -9.5880  -20.8170   17.6376 H   0  0  0  0  0  0  0  0  0  0  0  0
   -8.5996  -23.2876   15.7966 H   0  0  0  0  0  0  0  0  0  0  0  0
  -10.4524  -21.8011   14.3271 H   0  0  0  0  0  0  0  0  0  0  0  0
   -8.8349  -22.6801   14.1135 H   0  0  0  0  0  0  0  0  0  0  0  0
  -11.4053  -23.5967   13.2917 H   0  0  0  0  0  0  0  0  0  0  0  0
   -9.8087  -23.8145   12.6463 H   0  0  0  0  0  0  0  0  0  0  0  0
   -9.3571  -25.5469   14.1791 H   0  0  0  0  0  0  0  0  0  0  0  0
  -11.0892  -25.6055   14.3351 H   0  0  0  0  0  0  0  0  0  0  0  0
  1  2  2  0
  2  3  1  0
  3  4  2  3
  4  5  1  0
  5  6  2  0
  6  7  1  0
  7  8  2  0
  8  9  1  0
  9 10  2  0
  2 11  1  0
 11 12  1  0
 12 13  1  0
 13 14  1  0
 14 15  1  0
 15 16  1  0
 16 17  1  0
 17 18  1  0
 18 19  1  0
 19 20  1  0
 10  5  1  0
 20 16  1  0
  3 21  1  0
  4 22  1  0
  6 23  1  0
  7 24  1  0
  8 25  1  0
  9 26  1  0
 12 27  1  0
 12 28  1  0
 13 29  1  0
 13 30  1  0
 14 31  1  0
 14 32  1  0
 15 33  1  0
 15 34  1  0
 16 35  1  0
 17 36  1  0
 17 37  1  0
 18 38  1  0
 18 39  1  0
 19 40  1  0
 19 41  1  0
M  END
>  <Energy>  (52) 
784.33735734624065

>  <compound_id>  (52) 
55212

>  <target_id>  (52) 
1

>  <reference_id>  (52) 
88

>  <inspiration_ids>  (52) 
[28, 88]

>  <energy_score>  (52) 
725.7869231794646

>  <distance_score>  (52) 
4.149014947917672

>  <path>  (52) 
/opt/xchem-fragalysis-2/maxwin/BulkDock/SCRATCH/511025/C55212-P88/C55212-P88.minimised.mol

>  <scratch_subdir>  (52) 
/opt/xchem-fragalysis-2/maxwin/BulkDock/SCRATCH/511025/C55212-P88

>  <fragmenstein_runtime>  (52) 
20.396294832229614

>  <fragmenstein_outcome>  (52) 
too moved

>  <fragmenstein_mode>  (52) 
expansion

>  <fragmenstein_error>  (52) 


$$$$
C43961-P28
     RDKit          3D

 46 47  0  0  0  0  0  0  0  0999 V2000
  -12.6259  -30.1950   13.9264 C   0  0  0  0  0  0  0  0  0  0  0  0
  -13.8015  -30.4582   15.2831 S   0  0  0  0  0  0  0  0  0  0  0  0
  -12.7010  -31.2940   16.4693 C   0  0  0  0  0  0  0  0  0  0  0  0
  -13.2402  -31.4541   17.9080 C   0  0  0  0  0  0  0  0  0  0  0  0
  -13.5247  -30.1243   18.6150 C   0  0  0  0  0  0  0  0  0  0  0  0
  -14.6482  -29.7106   18.5922 O   0  0  0  0  0  0  0  0  0  0  0  0
  -12.3115  -29.5305   19.1306 N   0  0  0  0  0  0  0  0  0  0  0  0
  -12.0534  -28.1830   19.7022 C   0  0  0  0  0  0  0  0  0  0  0  0
  -10.6521  -27.9342   21.2333 C   0  0  0  0  0  0  0  0  0  0  0  0
  -10.2047  -27.1715   22.8815 N   0  0  0  0  0  0  0  0  0  0  0  0
  -11.0002  -27.2969   24.5989 C   0  0  0  0  0  0  0  0  0  0  0  0
  -12.0492  -27.8855   24.8277 O   0  0  0  0  0  0  0  0  0  0  0  0
  -10.5324  -26.5734   25.8865 C   0  0  0  0  0  0  0  0  0  0  0  0
  -10.3246  -25.1853   25.9677 C   0  0  0  0  0  0  0  0  0  0  0  0
  -11.2943  -24.2913   26.4081 C   0  0  0  0  0  0  0  0  0  0  0  0
  -12.5373  -24.7926   26.6060 C   0  0  0  0  0  0  0  0  0  0  0  0
  -12.7377  -26.0989   26.8221 N   0  0  0  0  0  0  0  0  0  0  0  0
  -11.6079  -26.8819   26.7242 C   0  0  0  0  0  0  0  0  0  0  0  0
  -12.0687  -27.1834   18.3877 C   0  0  0  0  0  0  0  0  0  0  0  0
  -11.3775  -27.5494   17.0769 C   0  0  0  0  0  0  0  0  0  0  0  0
  -11.9932  -26.5996   16.0602 C   0  0  0  0  0  0  0  0  0  0  0  0
  -13.1950  -26.0789   16.6410 O   0  0  0  0  0  0  0  0  0  0  0  0
  -13.4541  -26.8245   17.8462 C   0  0  0  0  0  0  0  0  0  0  0  0
  -13.1360  -29.6894   13.1024 H   0  0  0  0  0  0  0  0  0  0  0  0
  -12.2446  -31.1539   13.5662 H   0  0  0  0  0  0  0  0  0  0  0  0
  -11.7943  -29.5685   14.2583 H   0  0  0  0  0  0  0  0  0  0  0  0
  -12.4855  -32.2912   16.0705 H   0  0  0  0  0  0  0  0  0  0  0  0
  -11.7627  -30.7418   16.4825 H   0  0  0  0  0  0  0  0  0  0  0  0
  -12.5211  -32.0254   18.5073 H   0  0  0  0  0  0  0  0  0  0  0  0
  -14.1649  -32.0444   17.9019 H   0  0  0  0  0  0  0  0  0  0  0  0
  -11.5294  -30.1298   18.9052 H   0  0  0  0  0  0  0  0  0  0  0  0
  -13.0651  -27.9336   20.0259 H   0  0  0  0  0  0  0  0  0  0  0  0
  -10.3785  -28.9290   21.6319 H   0  0  0  0  0  0  0  0  0  0  0  0
  -10.2284  -27.0569   20.7727 H   0  0  0  0  0  0  0  0  0  0  0  0
   -9.3460  -26.7395   22.9534 H   0  0  0  0  0  0  0  0  0  0  0  0
   -9.3821  -24.7455   25.6805 H   0  0  0  0  0  0  0  0  0  0  0  0
  -11.1629  -23.2320   26.5103 H   0  0  0  0  0  0  0  0  0  0  0  0
  -13.3512  -24.0979   26.6696 H   0  0  0  0  0  0  0  0  0  0  0  0
  -11.7770  -27.9118   27.0392 H   0  0  0  0  0  0  0  0  0  0  0  0
  -11.6791  -26.2442   18.7156 H   0  0  0  0  0  0  0  0  0  0  0  0
  -10.2916  -27.4528   17.0856 H   0  0  0  0  0  0  0  0  0  0  0  0
  -11.6088  -28.5724   16.7811 H   0  0  0  0  0  0  0  0  0  0  0  0
  -12.2365  -27.1089   15.1230 H   0  0  0  0  0  0  0  0  0  0  0  0
  -11.3298  -25.7629   15.8297 H   0  0  0  0  0  0  0  0  0  0  0  0
  -14.0264  -26.1999   18.5366 H   0  0  0  0  0  0  0  0  0  0  0  0
  -14.0551  -27.6858   17.5601 H   0  0  0  0  0  0  0  0  0  0  0  0
  1  2  1  0
  2  3  1  0
  3  4  1  0
  4  5  1  0
  5  6  2  0
  5  7  1  0
  7  8  1  0
  8  9  1  0
  9 10  1  0
 10 11  1  0
 11 12  2  0
 11 13  1  0
 13 14  2  0
 14 15  1  0
 15 16  2  0
 16 17  1  0
 17 18  2  0
  8 19  1  0
 19 20  1  0
 20 21  1  0
 21 22  1  0
 22 23  1  0
 18 13  1  0
 23 19  1  0
  1 24  1  0
  1 25  1  0
  1 26  1  0
  3 27  1  0
  3 28  1  0
  4 29  1  0
  4 30  1  0
  7 31  1  0
  8 32  1  0
  9 33  1  0
  9 34  1  0
 10 35  1  0
 14 36  1  0
 15 37  1  0
 16 38  1  0
 18 39  1  0
 19 40  1  0
 20 41  1  0
 20 42  1  0
 21 43  1  0
 21 44  1  0
 23 45  1  0
 23 46  1  0
M  END
>  <Energy>  (53) 
385.21346866750906

>  <compound_id>  (53) 
43961

>  <target_id>  (53) 
1

>  <reference_id>  (53) 
28

>  <inspiration_ids>  (53) 
[28, 88]

>  <energy_score>  (53) 
337.08887622564504

>  <distance_score>  (53) 
6.0769158223459145

>  <path>  (53) 
/opt/xchem-fragalysis-2/maxwin/BulkDock/SCRATCH/511025/C43961-P28/C43961-P28.minimised.mol

>  <scratch_subdir>  (53) 
/opt/xchem-fragalysis-2/maxwin/BulkDock/SCRATCH/511025/C43961-P28

>  <fragmenstein_runtime>  (53) 
12.592042207717896

>  <fragmenstein_outcome>  (53) 
too moved

>  <fragmenstein_mode>  (53) 
expansion

>  <fragmenstein_error>  (53) 


$$$$
C43961-P88
     RDKit          3D

 46 47  0  0  0  0  0  0  0  0999 V2000
  -12.0055  -30.4290   14.0260 C   0  0  0  0  0  0  0  0  0  0  0  0
  -11.0696  -30.9113   15.5016 S   0  0  0  0  0  0  0  0  0  0  0  0
  -12.3245  -31.9725   16.3137 C   0  0  0  0  0  0  0  0  0  0  0  0
  -11.9417  -32.3609   17.7585 C   0  0  0  0  0  0  0  0  0  0  0  0
  -12.2841  -31.2815   18.8017 C   0  0  0  0  0  0  0  0  0  0  0  0
  -13.1847  -31.4465   19.5700 O   0  0  0  0  0  0  0  0  0  0  0  0
  -11.4431  -30.1503   18.5808 N   0  0  0  0  0  0  0  0  0  0  0  0
  -11.4740  -28.7980   19.1528 C   0  0  0  0  0  0  0  0  0  0  0  0
  -10.6371  -28.4681   21.0722 C   0  0  0  0  0  0  0  0  0  0  0  0
  -10.3594  -27.2563   22.6190 N   0  0  0  0  0  0  0  0  0  0  0  0
  -11.3583  -26.9936   24.2491 C   0  0  0  0  0  0  0  0  0  0  0  0
  -12.4052  -27.5942   24.5186 O   0  0  0  0  0  0  0  0  0  0  0  0
  -11.0352  -25.7689   25.5244 C   0  0  0  0  0  0  0  0  0  0  0  0
  -11.7654  -26.0761   26.7201 C   0  0  0  0  0  0  0  0  0  0  0  0
  -11.8418  -25.2464   27.8501 C   0  0  0  0  0  0  0  0  0  0  0  0
  -11.2453  -24.0167   27.7793 C   0  0  0  0  0  0  0  0  0  0  0  0
  -10.6329  -23.5986   26.6655 N   0  0  0  0  0  0  0  0  0  0  0  0
  -10.5852  -24.4459   25.5838 C   0  0  0  0  0  0  0  0  0  0  0  0
  -12.7022  -27.9429   18.4688 C   0  0  0  0  0  0  0  0  0  0  0  0
  -12.2696  -27.3359   17.1096 C   0  0  0  0  0  0  0  0  0  0  0  0
  -13.5742  -26.8387   16.5419 C   0  0  0  0  0  0  0  0  0  0  0  0
  -14.5600  -27.7779   16.9764 O   0  0  0  0  0  0  0  0  0  0  0  0
  -13.9551  -28.6558   17.9548 C   0  0  0  0  0  0  0  0  0  0  0  0
  -11.3814  -29.7881   13.3979 H   0  0  0  0  0  0  0  0  0  0  0  0
  -12.2891  -31.3141   13.4510 H   0  0  0  0  0  0  0  0  0  0  0  0
  -12.9007  -29.8710   14.3125 H   0  0  0  0  0  0  0  0  0  0  0  0
  -12.4069  -32.8850   15.7141 H   0  0  0  0  0  0  0  0  0  0  0  0
  -13.2942  -31.4674   16.2993 H   0  0  0  0  0  0  0  0  0  0  0  0
  -10.8834  -32.6343   17.8458 H   0  0  0  0  0  0  0  0  0  0  0  0
  -12.5145  -33.2547   18.0377 H   0  0  0  0  0  0  0  0  0  0  0  0
  -10.8341  -30.3397   17.7831 H   0  0  0  0  0  0  0  0  0  0  0  0
  -10.7800  -28.3264   18.4272 H   0  0  0  0  0  0  0  0  0  0  0  0
   -9.9954  -27.5862   20.8891 H   0  0  0  0  0  0  0  0  0  0  0  0
  -11.1038  -27.9535   20.2803 H   0  0  0  0  0  0  0  0  0  0  0  0
   -9.6279  -26.6341   22.5815 H   0  0  0  0  0  0  0  0  0  0  0  0
  -12.3256  -27.0111   26.7794 H   0  0  0  0  0  0  0  0  0  0  0  0
  -12.3858  -25.5545   28.7350 H   0  0  0  0  0  0  0  0  0  0  0  0
  -11.2667  -23.3107   28.6037 H   0  0  0  0  0  0  0  0  0  0  0  0
  -10.1176  -23.9075   24.7685 H   0  0  0  0  0  0  0  0  0  0  0  0
  -13.0314  -27.1075   19.0868 H   0  0  0  0  0  0  0  0  0  0  0  0
  -11.5053  -26.5653   17.1765 H   0  0  0  0  0  0  0  0  0  0  0  0
  -11.8719  -28.1201   16.4555 H   0  0  0  0  0  0  0  0  0  0  0  0
  -13.8502  -25.8627   16.9523 H   0  0  0  0  0  0  0  0  0  0  0  0
  -13.5693  -26.7801   15.4503 H   0  0  0  0  0  0  0  0  0  0  0  0
  -14.7067  -28.8569   18.7136 H   0  0  0  0  0  0  0  0  0  0  0  0
  -13.7374  -29.5835   17.4275 H   0  0  0  0  0  0  0  0  0  0  0  0
  1  2  1  0
  2  3  1  0
  3  4  1  0
  4  5  1  0
  5  6  2  0
  5  7  1  0
  7  8  1  0
  8  9  1  0
  9 10  1  0
 10 11  1  0
 11 12  2  0
 11 13  1  0
 13 14  2  0
 14 15  1  0
 15 16  2  0
 16 17  1  0
 17 18  2  0
  8 19  1  0
 19 20  1  0
 20 21  1  0
 21 22  1  0
 22 23  1  0
 18 13  1  0
 23 19  1  0
  1 24  1  0
  1 25  1  0
  1 26  1  0
  3 27  1  0
  3 28  1  0
  4 29  1  0
  4 30  1  0
  7 31  1  0
  8 32  1  0
  9 33  1  0
  9 34  1  0
 10 35  1  0
 14 36  1  0
 15 37  1  0
 16 38  1  0
 18 39  1  0
 19 40  1  0
 20 41  1  0
 20 42  1  0
 21 43  1  0
 21 44  1  0
 23 45  1  0
 23 46  1  0
M  END
>  <Energy>  (54) 
515.25426961311689

>  <compound_id>  (54) 
43961

>  <target_id>  (54) 
1

>  <reference_id>  (54) 
88

>  <inspiration_ids>  (54) 
[28, 88]

>  <energy_score>  (54) 
467.1296771712598

>  <distance_score>  (54) 
6.061783134220666

>  <path>  (54) 
/opt/xchem-fragalysis-2/maxwin/BulkDock/SCRATCH/511025/C43961-P88/C43961-P88.minimised.mol

>  <scratch_subdir>  (54) 
/opt/xchem-fragalysis-2/maxwin/BulkDock/SCRATCH/511025/C43961-P88

>  <fragmenstein_runtime>  (54) 
13.275674819946289

>  <fragmenstein_outcome>  (54) 
too moved

>  <fragmenstein_mode>  (54) 
expansion

>  <fragmenstein_error>  (54) 


$$$$
C55218-P28
     RDKit          3D

 47 49  0  0  0  0  0  0  0  0999 V2000
  -11.1911  -21.5233   22.2454 C   0  0  0  0  0  0  0  0  0  0  0  0
  -12.1820  -22.6413   22.4884 C   0  0  0  0  0  0  0  0  0  0  0  0
  -12.4327  -23.6899   20.7759 C   0  0  0  0  0  0  0  0  0  0  0  0
  -13.3399  -24.8617   19.6057 N   0  0  0  0  0  0  0  0  0  0  0  0
  -13.7275  -26.2684   19.6905 C   0  0  0  0  0  0  0  0  0  0  0  0
  -13.8336  -24.6916   18.0857 C   0  0  0  0  0  0  0  0  0  0  0  0
  -13.4145  -25.7317   16.9864 C   0  0  0  0  0  0  0  0  0  0  0  0
  -14.1861  -26.0438   15.8737 C   0  0  0  0  0  0  0  0  0  0  0  0
  -13.3265  -27.0665   14.7959 S   0  0  0  0  0  0  0  0  0  0  0  0
  -11.9989  -27.0435   15.8742 C   0  0  0  0  0  0  0  0  0  0  0  0
  -12.1646  -26.3452   16.9767 N   0  0  0  0  0  0  0  0  0  0  0  0
  -12.2794  -22.7381   24.3339 N   0  0  0  0  0  0  0  0  0  0  0  0
  -11.2867  -23.5948   25.4863 C   0  0  0  0  0  0  0  0  0  0  0  0
  -10.3689  -24.3757   25.2960 O   0  0  0  0  0  0  0  0  0  0  0  0
  -11.4975  -23.3227   26.9298 C   0  0  0  0  0  0  0  0  0  0  0  0
  -12.5529  -22.5124   27.1447 C   0  0  0  0  0  0  0  0  0  0  0  0
  -12.3578  -21.6249   28.0836 N   0  0  0  0  0  0  0  0  0  0  0  0
  -11.2277  -22.0076   28.6143 N   0  0  0  0  0  0  0  0  0  0  0  0
  -10.7581  -23.2663   28.1824 C   0  0  0  0  0  0  0  0  0  0  0  0
  -10.2063  -24.3276   29.5400 C   0  0  0  0  0  0  0  0  0  0  0  0
  -10.1080  -24.2192   31.5812 C   0  0  0  0  0  0  0  0  0  0  0  0
   -8.9836  -25.0554   32.0823 C   0  0  0  0  0  0  0  0  0  0  0  0
   -8.1821  -25.5892   30.8135 C   0  0  0  0  0  0  0  0  0  0  0  0
   -8.8855  -24.8659   29.4238 O   0  0  0  0  0  0  0  0  0  0  0  0
  -10.2190  -21.7314   22.6919 H   0  0  0  0  0  0  0  0  0  0  0  0
  -11.5478  -20.6008   22.7136 H   0  0  0  0  0  0  0  0  0  0  0  0
  -11.0688  -21.3583   21.1767 H   0  0  0  0  0  0  0  0  0  0  0  0
  -13.1463  -22.1839   22.4988 H   0  0  0  0  0  0  0  0  0  0  0  0
  -12.4892  -22.7738   20.1929 H   0  0  0  0  0  0  0  0  0  0  0  0
  -11.5281  -24.2813   20.7628 H   0  0  0  0  0  0  0  0  0  0  0  0
  -13.8860  -26.5405   20.6891 H   0  0  0  0  0  0  0  0  0  0  0  0
  -13.0480  -26.9697   19.1910 H   0  0  0  0  0  0  0  0  0  0  0  0
  -14.7110  -26.4989   19.2513 H   0  0  0  0  0  0  0  0  0  0  0  0
  -13.5986  -23.7268   17.7206 H   0  0  0  0  0  0  0  0  0  0  0  0
  -14.9257  -24.7115   18.0161 H   0  0  0  0  0  0  0  0  0  0  0  0
  -15.1780  -25.6926   15.6268 H   0  0  0  0  0  0  0  0  0  0  0  0
  -11.0771  -27.5698   15.6601 H   0  0  0  0  0  0  0  0  0  0  0  0
  -12.9040  -22.0986   24.8212 H   0  0  0  0  0  0  0  0  0  0  0  0
  -13.4398  -22.5470   26.5557 H   0  0  0  0  0  0  0  0  0  0  0  0
  -10.9732  -21.4951   29.4443 H   0  0  0  0  0  0  0  0  0  0  0  0
  -10.5761  -23.3216   29.8309 H   0  0  0  0  0  0  0  0  0  0  0  0
  -11.0249  -24.4511   32.1123 H   0  0  0  0  0  0  0  0  0  0  0  0
  -10.1090  -23.4003   32.3253 H   0  0  0  0  0  0  0  0  0  0  0  0
   -8.4428  -24.5387   32.8736 H   0  0  0  0  0  0  0  0  0  0  0  0
   -9.4129  -25.7857   32.6892 H   0  0  0  0  0  0  0  0  0  0  0  0
   -7.0878  -25.4934   30.8521 H   0  0  0  0  0  0  0  0  0  0  0  0
   -8.3361  -26.6426   30.5549 H   0  0  0  0  0  0  0  0  0  0  0  0
  1  2  1  0
  2  3  1  0
  3  4  1  0
  4  5  1  0
  4  6  1  0
  6  7  1  0
  7  8  2  0
  8  9  1  0
  9 10  1  0
 10 11  2  0
  2 12  1  0
 12 13  1  0
 13 14  2  0
 13 15  1  0
 15 16  1  0
 16 17  2  0
 17 18  1  0
 18 19  1  0
 19 20  1  0
 20 21  1  0
 21 22  1  0
 22 23  1  0
 23 24  1  0
 11  7  1  0
 19 15  2  0
 24 20  1  0
  1 25  1  0
  1 26  1  0
  1 27  1  0
  2 28  1  0
  3 29  1  0
  3 30  1  0
  5 31  1  0
  5 32  1  0
  5 33  1  0
  6 34  1  0
  6 35  1  0
  8 36  1  0
 10 37  1  0
 12 38  1  0
 16 39  1  0
 18 40  1  0
 20 41  1  0
 21 42  1  0
 21 43  1  0
 22 44  1  0
 22 45  1  0
 23 46  1  0
 23 47  1  0
M  END
>  <Energy>  (55) 
638.12778599523358

>  <compound_id>  (55) 
55218

>  <target_id>  (55) 
1

>  <reference_id>  (55) 
28

>  <inspiration_ids>  (55) 
[28, 88]

>  <energy_score>  (55) 
520.6956452715608

>  <distance_score>  (55) 
3.995533925963735

>  <path>  (55) 
/opt/xchem-fragalysis-2/maxwin/BulkDock/SCRATCH/511025/C55218-P28/C55218-P28.minimised.mol

>  <scratch_subdir>  (55) 
/opt/xchem-fragalysis-2/maxwin/BulkDock/SCRATCH/511025/C55218-P28

>  <fragmenstein_runtime>  (55) 
15.452061891555786

>  <fragmenstein_outcome>  (55) 
too moved

>  <fragmenstein_mode>  (55) 
expansion

>  <fragmenstein_error>  (55) 


$$$$
C55218-P88
     RDKit          3D

 47 49  0  0  0  0  0  0  0  0999 V2000
  -12.4672  -27.5239   24.8143 C   0  0  0  0  0  0  0  0  0  0  0  0
  -10.9296  -27.3442   23.5294 C   0  0  0  0  0  0  0  0  0  0  0  0
  -10.4759  -27.8008   21.4030 C   0  0  0  0  0  0  0  0  0  0  0  0
  -11.4331  -28.1372   19.5515 N   0  0  0  0  0  0  0  0  0  0  0  0
  -12.2439  -27.2358   18.6307 C   0  0  0  0  0  0  0  0  0  0  0  0
  -11.6017  -29.5605   18.8538 C   0  0  0  0  0  0  0  0  0  0  0  0
  -11.2202  -29.6685   17.3653 C   0  0  0  0  0  0  0  0  0  0  0  0
  -11.3482  -30.8150   16.5957 C   0  0  0  0  0  0  0  0  0  0  0  0
  -10.9299  -30.5110   14.9558 S   0  0  0  0  0  0  0  0  0  0  0  0
  -10.5856  -28.8893   15.3681 C   0  0  0  0  0  0  0  0  0  0  0  0
  -10.7827  -28.5699   16.6269 N   0  0  0  0  0  0  0  0  0  0  0  0
  -10.6896  -25.9335   24.8801 N   0  0  0  0  0  0  0  0  0  0  0  0
  -11.0915  -25.8787   26.3862 C   0  0  0  0  0  0  0  0  0  0  0  0
  -11.5766  -26.7289   27.1054 O   0  0  0  0  0  0  0  0  0  0  0  0
  -10.9268  -24.5306   26.9538 C   0  0  0  0  0  0  0  0  0  0  0  0
  -11.2533  -23.3177   26.3090 C   0  0  0  0  0  0  0  0  0  0  0  0
  -11.1516  -22.2644   27.1071 N   0  0  0  0  0  0  0  0  0  0  0  0
  -10.6934  -22.7554   28.2437 N   0  0  0  0  0  0  0  0  0  0  0  0
  -10.6633  -24.1203   28.2624 C   0  0  0  0  0  0  0  0  0  0  0  0
  -10.4068  -24.8030   29.5484 C   0  0  0  0  0  0  0  0  0  0  0  0
  -11.4133  -24.4540   30.6318 C   0  0  0  0  0  0  0  0  0  0  0  0
  -10.6983  -23.4611   31.5194 C   0  0  0  0  0  0  0  0  0  0  0  0
   -9.2688  -23.9109   31.3808 C   0  0  0  0  0  0  0  0  0  0  0  0
   -9.1326  -24.3382   30.0166 O   0  0  0  0  0  0  0  0  0  0  0  0
  -12.4672  -28.1417   25.7159 H   0  0  0  0  0  0  0  0  0  0  0  0
  -12.7200  -26.5080   25.1734 H   0  0  0  0  0  0  0  0  0  0  0  0
  -13.5037  -27.6025   24.4589 H   0  0  0  0  0  0  0  0  0  0  0  0
   -9.8862  -27.7709   23.7782 H   0  0  0  0  0  0  0  0  0  0  0  0
  -10.1577  -26.7214   21.6114 H   0  0  0  0  0  0  0  0  0  0  0  0
   -9.8606  -27.2645   20.7341 H   0  0  0  0  0  0  0  0  0  0  0  0
  -12.9468  -27.8152   18.0166 H   0  0  0  0  0  0  0  0  0  0  0  0
  -12.9405  -26.5282   19.0998 H   0  0  0  0  0  0  0  0  0  0  0  0
  -11.5671  -26.7525   17.9289 H   0  0  0  0  0  0  0  0  0  0  0  0
  -12.6839  -29.7742   18.8695 H   0  0  0  0  0  0  0  0  0  0  0  0
  -11.1971  -30.3711   19.4541 H   0  0  0  0  0  0  0  0  0  0  0  0
  -11.6791  -31.7955   16.9052 H   0  0  0  0  0  0  0  0  0  0  0  0
  -10.2296  -28.1712   14.6401 H   0  0  0  0  0  0  0  0  0  0  0  0
  -10.2317  -25.0604   24.6224 H   0  0  0  0  0  0  0  0  0  0  0  0
  -11.6067  -23.1379   25.3048 H   0  0  0  0  0  0  0  0  0  0  0  0
  -10.4759  -22.1069   28.9935 H   0  0  0  0  0  0  0  0  0  0  0  0
  -10.3946  -25.8807   29.3990 H   0  0  0  0  0  0  0  0  0  0  0  0
  -11.6281  -25.3631   31.2044 H   0  0  0  0  0  0  0  0  0  0  0  0
  -12.3536  -24.0691   30.2310 H   0  0  0  0  0  0  0  0  0  0  0  0
  -10.8198  -22.4467   31.1257 H   0  0  0  0  0  0  0  0  0  0  0  0
  -11.0424  -23.4580   32.5550 H   0  0  0  0  0  0  0  0  0  0  0  0
   -9.0539  -24.7647   32.0323 H   0  0  0  0  0  0  0  0  0  0  0  0
   -8.5521  -23.1153   31.5957 H   0  0  0  0  0  0  0  0  0  0  0  0
  1  2  1  0
  2  3  1  0
  3  4  1  0
  4  5  1  0
  4  6  1  0
  6  7  1  0
  7  8  2  0
  8  9  1  0
  9 10  1  0
 10 11  2  0
  2 12  1  0
 12 13  1  0
 13 14  2  0
 13 15  1  0
 15 16  1  0
 16 17  2  0
 17 18  1  0
 18 19  1  0
 19 20  1  0
 20 21  1  0
 21 22  1  0
 22 23  1  0
 23 24  1  0
 11  7  1  0
 19 15  2  0
 24 20  1  0
  1 25  1  0
  1 26  1  0
  1 27  1  0
  2 28  1  0
  3 29  1  0
  3 30  1  0
  5 31  1  0
  5 32  1  0
  5 33  1  0
  6 34  1  0
  6 35  1  0
  8 36  1  0
 10 37  1  0
 12 38  1  0
 16 39  1  0
 18 40  1  0
 20 41  1  0
 21 42  1  0
 21 43  1  0
 22 44  1  0
 22 45  1  0
 23 46  1  0
 23 47  1  0
M  END
>  <Energy>  (56) 
664.37884909226921

>  <compound_id>  (56) 
55218

>  <target_id>  (56) 
1

>  <reference_id>  (56) 
88

>  <inspiration_ids>  (56) 
[28, 88]

>  <energy_score>  (56) 
546.9467083686047

>  <distance_score>  (56) 
3.805820490776356

>  <path>  (56) 
/opt/xchem-fragalysis-2/maxwin/BulkDock/SCRATCH/511025/C55218-P88/C55218-P88.minimised.mol

>  <scratch_subdir>  (56) 
/opt/xchem-fragalysis-2/maxwin/BulkDock/SCRATCH/511025/C55218-P88

>  <fragmenstein_runtime>  (56) 
28.500227212905884

>  <fragmenstein_outcome>  (56) 
too moved

>  <fragmenstein_mode>  (56) 
expansion

>  <fragmenstein_error>  (56) 


$$$$
C55202-P28
     RDKit          3D

 42 43  0  0  0  0  0  0  0  0999 V2000
  -12.2000  -21.1856   25.1849 C   0  0  0  0  0  0  0  0  0  0  0  0
  -12.2361  -22.7097   25.3009 C   0  0  0  0  0  0  0  0  0  0  0  0
  -12.5960  -22.3748   23.5133 C   0  0  0  0  0  0  0  0  0  0  0  0
  -11.3475  -21.7001   22.4225 C   0  0  0  0  0  0  0  0  0  0  0  0
  -10.9509  -21.6940   20.8487 N   0  0  0  0  0  0  0  0  0  0  0  0
   -9.5167  -21.2089   20.0523 C   0  0  0  0  0  0  0  0  0  0  0  0
   -8.5830  -20.7866   20.6229 O   0  0  0  0  0  0  0  0  0  0  0  0
   -9.1504  -21.2048   18.0362 C   0  0  0  0  0  0  0  0  0  0  0  0
   -9.5398  -22.1384   16.3098 C   0  0  0  0  0  0  0  0  0  0  0  0
   -9.8958  -21.3701   15.1530 C   0  0  0  0  0  0  0  0  0  0  0  0
   -9.8983  -20.0952   15.7904 O   0  0  0  0  0  0  0  0  0  0  0  0
   -9.2976  -19.9491   17.4007 C   0  0  0  0  0  0  0  0  0  0  0  0
  -12.3297  -22.5311   27.0445 N   0  0  0  0  0  0  0  0  0  0  0  0
  -11.3210  -22.9301   28.1677 C   0  0  0  0  0  0  0  0  0  0  0  0
  -10.2731  -23.5318   28.0968 O   0  0  0  0  0  0  0  0  0  0  0  0
  -11.7093  -22.2808   29.8586 C   0  0  0  0  0  0  0  0  0  0  0  0
  -11.3013  -22.9513   31.5840 C   0  0  0  0  0  0  0  0  0  0  0  0
  -10.4426  -22.5106   32.5018 C   0  0  0  0  0  0  0  0  0  0  0  0
   -9.4464  -23.4145   32.9177 O   0  0  0  0  0  0  0  0  0  0  0  0
   -9.8308  -24.5143   32.4755 C   0  0  0  0  0  0  0  0  0  0  0  0
  -11.0131  -24.2823   32.0608 N   0  0  0  0  0  0  0  0  0  0  0  0
  -11.4215  -20.7582   24.5598 H   0  0  0  0  0  0  0  0  0  0  0  0
  -13.0669  -20.6948   24.7671 H   0  0  0  0  0  0  0  0  0  0  0  0
  -12.0542  -20.8269   26.1624 H   0  0  0  0  0  0  0  0  0  0  0  0
  -13.2230  -23.1955   25.3683 H   0  0  0  0  0  0  0  0  0  0  0  0
  -13.4590  -21.7178   23.4329 H   0  0  0  0  0  0  0  0  0  0  0  0
  -13.1721  -23.1968   23.1408 H   0  0  0  0  0  0  0  0  0  0  0  0
  -10.3934  -21.8744   22.9250 H   0  0  0  0  0  0  0  0  0  0  0  0
  -11.5248  -20.6388   22.5409 H   0  0  0  0  0  0  0  0  0  0  0  0
  -11.6376  -21.9371   20.1591 H   0  0  0  0  0  0  0  0  0  0  0  0
   -8.0581  -21.1510   18.0219 H   0  0  0  0  0  0  0  0  0  0  0  0
   -8.6401  -22.5573   15.7788 H   0  0  0  0  0  0  0  0  0  0  0  0
  -10.0314  -23.0911   16.2476 H   0  0  0  0  0  0  0  0  0  0  0  0
  -10.7009  -21.5646   14.4511 H   0  0  0  0  0  0  0  0  0  0  0  0
   -9.1422  -21.6519   14.4020 H   0  0  0  0  0  0  0  0  0  0  0  0
   -8.2356  -19.6201   17.6310 H   0  0  0  0  0  0  0  0  0  0  0  0
   -9.6987  -18.9547   17.5449 H   0  0  0  0  0  0  0  0  0  0  0  0
  -13.1426  -22.1063   27.4621 H   0  0  0  0  0  0  0  0  0  0  0  0
  -11.1138  -21.3625   29.8757 H   0  0  0  0  0  0  0  0  0  0  0  0
  -12.7120  -21.8683   29.8789 H   0  0  0  0  0  0  0  0  0  0  0  0
   -9.9410  -21.5465   32.4702 H   0  0  0  0  0  0  0  0  0  0  0  0
   -9.1823  -25.3530   32.5310 H   0  0  0  0  0  0  0  0  0  0  0  0
  1  2  1  0
  2  3  1  0
  3  4  1  0
  4  5  1  0
  5  6  1  0
  6  7  2  0
  6  8  1  0
  8  9  1  0
  9 10  1  0
 10 11  1  0
 11 12  1  0
  2 13  1  0
 13 14  1  0
 14 15  2  0
 14 16  1  0
 16 17  1  0
 17 18  2  0
 18 19  1  0
 19 20  1  0
 20 21  2  0
 12  8  1  0
 21 17  1  0
  1 22  1  0
  1 23  1  0
  1 24  1  0
  2 25  1  0
  3 26  1  0
  3 27  1  0
  4 28  1  0
  4 29  1  0
  5 30  1  0
  8 31  1  0
  9 32  1  0
  9 33  1  0
 10 34  1  0
 10 35  1  0
 12 36  1  0
 12 37  1  0
 13 38  1  0
 16 39  1  0
 16 40  1  0
 18 41  1  0
 20 42  1  0
M  END
>  <Energy>  (57) 
679.17742929988628

>  <compound_id>  (57) 
55202

>  <target_id>  (57) 
1

>  <reference_id>  (57) 
28

>  <inspiration_ids>  (57) 
[28, 88]

>  <energy_score>  (57) 
656.3470043035846

>  <distance_score>  (57) 
4.56934555172147

>  <path>  (57) 
/opt/xchem-fragalysis-2/maxwin/BulkDock/SCRATCH/511025/C55202-P28/C55202-P28.minimised.mol

>  <scratch_subdir>  (57) 
/opt/xchem-fragalysis-2/maxwin/BulkDock/SCRATCH/511025/C55202-P28

>  <fragmenstein_runtime>  (57) 
23.208192110061646

>  <fragmenstein_outcome>  (57) 
too moved

>  <fragmenstein_mode>  (57) 
expansion

>  <fragmenstein_error>  (57) 


$$$$
C55202-P88
     RDKit          3D

 42 43  0  0  0  0  0  0  0  0999 V2000
  -11.6890  -26.5773   27.2557 C   0  0  0  0  0  0  0  0  0  0  0  0
  -10.9656  -25.9523   25.9889 C   0  0  0  0  0  0  0  0  0  0  0  0
  -11.3914  -26.7806   24.4194 C   0  0  0  0  0  0  0  0  0  0  0  0
  -10.5442  -26.6739   22.4375 C   0  0  0  0  0  0  0  0  0  0  0  0
  -10.8587  -25.1731   20.9763 N   0  0  0  0  0  0  0  0  0  0  0  0
   -9.7481  -24.2382   19.9410 C   0  0  0  0  0  0  0  0  0  0  0  0
   -8.6335  -24.5029   20.2560 O   0  0  0  0  0  0  0  0  0  0  0  0
   -9.8913  -22.8702   17.9948 C   0  0  0  0  0  0  0  0  0  0  0  0
   -9.2207  -22.9944   16.0121 C   0  0  0  0  0  0  0  0  0  0  0  0
   -9.8222  -22.8173   14.6001 C   0  0  0  0  0  0  0  0  0  0  0  0
  -10.6157  -23.8794   14.7223 O   0  0  0  0  0  0  0  0  0  0  0  0
  -10.2220  -24.0235   16.1435 C   0  0  0  0  0  0  0  0  0  0  0  0
  -11.4513  -24.6281   26.0936 N   0  0  0  0  0  0  0  0  0  0  0  0
  -11.0222  -23.4347   25.4886 C   0  0  0  0  0  0  0  0  0  0  0  0
  -10.0873  -23.2103   24.7896 O   0  0  0  0  0  0  0  0  0  0  0  0
  -12.0576  -22.3840   25.7858 C   0  0  0  0  0  0  0  0  0  0  0  0
  -13.4849  -22.8679   25.7446 C   0  0  0  0  0  0  0  0  0  0  0  0
  -14.5695  -22.2776   25.1493 C   0  0  0  0  0  0  0  0  0  0  0  0
  -15.6706  -23.0361   25.3918 O   0  0  0  0  0  0  0  0  0  0  0  0
  -15.2119  -24.0406   26.1827 C   0  0  0  0  0  0  0  0  0  0  0  0
  -13.9241  -23.9946   26.4324 N   0  0  0  0  0  0  0  0  0  0  0  0
  -12.0954  -25.8299   27.9506 H   0  0  0  0  0  0  0  0  0  0  0  0
  -12.5229  -27.2227   26.9589 H   0  0  0  0  0  0  0  0  0  0  0  0
  -10.9935  -27.1421   27.8849 H   0  0  0  0  0  0  0  0  0  0  0  0
   -9.9031  -25.9928   26.1477 H   0  0  0  0  0  0  0  0  0  0  0  0
  -12.3894  -26.1985   24.6889 H   0  0  0  0  0  0  0  0  0  0  0  0
  -12.0314  -27.6771   24.5988 H   0  0  0  0  0  0  0  0  0  0  0  0
  -11.0091  -26.1567   23.7087 H   0  0  0  0  0  0  0  0  0  0  0  0
  -10.3258  -27.5392   21.9122 H   0  0  0  0  0  0  0  0  0  0  0  0
  -11.7951  -24.9963   20.6243 H   0  0  0  0  0  0  0  0  0  0  0  0
   -9.3445  -21.7899   18.0524 H   0  0  0  0  0  0  0  0  0  0  0  0
   -8.1768  -22.8165   15.6707 H   0  0  0  0  0  0  0  0  0  0  0  0
   -8.4722  -23.9117   15.9279 H   0  0  0  0  0  0  0  0  0  0  0  0
   -9.1170  -23.0481   13.7974 H   0  0  0  0  0  0  0  0  0  0  0  0
  -10.3913  -21.9398   14.3774 H   0  0  0  0  0  0  0  0  0  0  0  0
  -10.8666  -24.9884   16.3944 H   0  0  0  0  0  0  0  0  0  0  0  0
   -9.5411  -24.9750   15.7510 H   0  0  0  0  0  0  0  0  0  0  0  0
  -12.3450  -24.4619   26.5569 H   0  0  0  0  0  0  0  0  0  0  0  0
  -11.9373  -21.5869   25.0430 H   0  0  0  0  0  0  0  0  0  0  0  0
  -11.8024  -22.0281   26.7901 H   0  0  0  0  0  0  0  0  0  0  0  0
  -14.7170  -21.3571   24.6101 H   0  0  0  0  0  0  0  0  0  0  0  0
  -15.9404  -24.7605   26.5289 H   0  0  0  0  0  0  0  0  0  0  0  0
  1  2  1  0
  2  3  1  0
  3  4  1  0
  4  5  1  0
  5  6  1  0
  6  7  2  0
  6  8  1  0
  8  9  1  0
  9 10  1  0
 10 11  1  0
 11 12  1  0
  2 13  1  0
 13 14  1  0
 14 15  2  0
 14 16  1  0
 16 17  1  0
 17 18  2  0
 18 19  1  0
 19 20  1  0
 20 21  2  0
 12  8  1  0
 21 17  1  0
  1 22  1  0
  1 23  1  0
  1 24  1  0
  2 25  1  0
  3 26  1  0
  3 27  1  0
  4 28  1  0
  4 29  1  0
  5 30  1  0
  8 31  1  0
  9 32  1  0
  9 33  1  0
 10 34  1  0
 10 35  1  0
 12 36  1  0
 12 37  1  0
 13 38  1  0
 16 39  1  0
 16 40  1  0
 18 41  1  0
 20 42  1  0
M  END
>  <Energy>  (58) 
1350.218533750691

>  <compound_id>  (58) 
55202

>  <target_id>  (58) 
1

>  <reference_id>  (58) 
88

>  <inspiration_ids>  (58) 
[28, 88]

>  <energy_score>  (58) 
1327.3881087543964

>  <distance_score>  (58) 
5.9930061858777846

>  <path>  (58) 
/opt/xchem-fragalysis-2/maxwin/BulkDock/SCRATCH/511025/C55202-P88/C55202-P88.minimised.mol

>  <scratch_subdir>  (58) 
/opt/xchem-fragalysis-2/maxwin/BulkDock/SCRATCH/511025/C55202-P88

>  <fragmenstein_runtime>  (58) 
18.66664695739746

>  <fragmenstein_outcome>  (58) 
too moved

>  <fragmenstein_mode>  (58) 
expansion

>  <fragmenstein_error>  (58) 


$$$$
C43959-P28
     RDKit          3D

 45 46  0  0  0  0  0  0  0  0999 V2000
  -12.1216  -28.2202   18.6358 C   0  0  0  0  0  0  0  0  0  0  0  0
  -10.8431  -26.9685   18.4544 C   0  0  0  0  0  0  0  0  0  0  0  0
  -11.8333  -26.3042   17.3470 C   0  0  0  0  0  0  0  0  0  0  0  0
  -12.1281  -27.2344   16.1183 C   0  0  0  0  0  0  0  0  0  0  0  0
  -12.0259  -26.5643   14.8569 N   0  0  0  0  0  0  0  0  0  0  0  0
  -10.8914  -26.0475   14.1608 C   0  0  0  0  0  0  0  0  0  0  0  0
   -9.7461  -25.9714   14.4872 O   0  0  0  0  0  0  0  0  0  0  0  0
  -11.2987  -25.5385   12.7696 C   0  0  0  0  0  0  0  0  0  0  0  0
  -10.1560  -24.7854   12.1081 C   0  0  0  0  0  0  0  0  0  0  0  0
  -10.2882  -23.4104   12.7292 C   0  0  0  0  0  0  0  0  0  0  0  0
  -11.6919  -23.2066   12.9129 O   0  0  0  0  0  0  0  0  0  0  0  0
  -12.3647  -24.4599   12.8049 C   0  0  0  0  0  0  0  0  0  0  0  0
  -10.4817  -26.7685   20.4770 N   0  0  0  0  0  0  0  0  0  0  0  0
  -10.4218  -28.0158   21.8177 C   0  0  0  0  0  0  0  0  0  0  0  0
  -10.4565  -29.3918   21.7124 O   0  0  0  0  0  0  0  0  0  0  0  0
  -10.5383  -27.4191   23.9166 C   0  0  0  0  0  0  0  0  0  0  0  0
  -11.1407  -26.3785   25.3868 C   0  0  0  0  0  0  0  0  0  0  0  0
  -10.4670  -25.2574   25.9013 C   0  0  0  0  0  0  0  0  0  0  0  0
  -11.1592  -24.3012   26.6121 C   0  0  0  0  0  0  0  0  0  0  0  0
  -12.5129  -24.4457   26.7215 C   0  0  0  0  0  0  0  0  0  0  0  0
  -13.1730  -25.6052   26.5030 N   0  0  0  0  0  0  0  0  0  0  0  0
  -12.4387  -26.5899   25.9477 C   0  0  0  0  0  0  0  0  0  0  0  0
  -11.9238  -28.9572   19.4071 H   0  0  0  0  0  0  0  0  0  0  0  0
  -12.2384  -28.8340   17.7429 H   0  0  0  0  0  0  0  0  0  0  0  0
  -13.0712  -27.7453   18.9077 H   0  0  0  0  0  0  0  0  0  0  0  0
  -10.0459  -27.4191   17.8139 H   0  0  0  0  0  0  0  0  0  0  0  0
  -12.7996  -26.0088   17.7745 H   0  0  0  0  0  0  0  0  0  0  0  0
  -11.3814  -25.4638   16.8531 H   0  0  0  0  0  0  0  0  0  0  0  0
  -13.1385  -27.6521   16.1732 H   0  0  0  0  0  0  0  0  0  0  0  0
  -11.3890  -28.0401   16.0563 H   0  0  0  0  0  0  0  0  0  0  0  0
  -12.8565  -26.3916   14.3070 H   0  0  0  0  0  0  0  0  0  0  0  0
  -11.6103  -26.4096   12.1829 H   0  0  0  0  0  0  0  0  0  0  0  0
  -10.3538  -24.7308   11.0336 H   0  0  0  0  0  0  0  0  0  0  0  0
   -9.1602  -25.2158   12.2421 H   0  0  0  0  0  0  0  0  0  0  0  0
   -9.8068  -23.3507   13.7103 H   0  0  0  0  0  0  0  0  0  0  0  0
   -9.8822  -22.6183   12.0966 H   0  0  0  0  0  0  0  0  0  0  0  0
  -12.9253  -24.4465   11.8632 H   0  0  0  0  0  0  0  0  0  0  0  0
  -13.0890  -24.5280   13.6190 H   0  0  0  0  0  0  0  0  0  0  0  0
  -10.5279  -25.8075   20.9114 H   0  0  0  0  0  0  0  0  0  0  0  0
   -9.5924  -27.6971   24.5463 H   0  0  0  0  0  0  0  0  0  0  0  0
  -11.3226  -27.8955   24.5454 H   0  0  0  0  0  0  0  0  0  0  0  0
   -9.4565  -24.9745   25.6637 H   0  0  0  0  0  0  0  0  0  0  0  0
  -10.6982  -23.4254   27.0351 H   0  0  0  0  0  0  0  0  0  0  0  0
  -13.0651  -23.5933   27.0700 H   0  0  0  0  0  0  0  0  0  0  0  0
  -12.9981  -27.5126   25.8102 H   0  0  0  0  0  0  0  0  0  0  0  0
  1  2  1  0
  2  3  1  0
  3  4  1  0
  4  5  1  0
  5  6  1  0
  6  7  2  0
  6  8  1  0
  8  9  1  0
  9 10  1  0
 10 11  1  0
 11 12  1  0
  2 13  1  0
 13 14  1  0
 14 15  2  0
 14 16  1  0
 16 17  1  0
 17 18  2  0
 18 19  1  0
 19 20  2  0
 20 21  1  0
 21 22  2  0
 12  8  1  0
 22 17  1  0
  1 23  1  0
  1 24  1  0
  1 25  1  0
  2 26  1  0
  3 27  1  0
  3 28  1  0
  4 29  1  0
  4 30  1  0
  5 31  1  0
  8 32  1  0
  9 33  1  0
  9 34  1  0
 10 35  1  0
 10 36  1  0
 12 37  1  0
 12 38  1  0
 13 39  1  0
 16 40  1  0
 16 41  1  0
 18 42  1  0
 19 43  1  0
 20 44  1  0
 22 45  1  0
M  END
>  <Energy>  (59) 
509.96724106796722

>  <compound_id>  (59) 
43959

>  <target_id>  (59) 
1

>  <reference_id>  (59) 
28

>  <inspiration_ids>  (59) 
[28, 88]

>  <energy_score>  (59) 
473.1428763606615

>  <distance_score>  (59) 
4.544227731941827

>  <path>  (59) 
/opt/xchem-fragalysis-2/maxwin/BulkDock/SCRATCH/511025/C43959-P28/C43959-P28.minimised.mol

>  <scratch_subdir>  (59) 
/opt/xchem-fragalysis-2/maxwin/BulkDock/SCRATCH/511025/C43959-P28

>  <fragmenstein_runtime>  (59) 
14.921922206878662

>  <fragmenstein_outcome>  (59) 
too moved

>  <fragmenstein_mode>  (59) 
expansion

>  <fragmenstein_error>  (59) 


$$$$
C43959-P88
     RDKit          3D

 45 46  0  0  0  0  0  0  0  0999 V2000
  -13.1703  -29.0917   17.9292 C   0  0  0  0  0  0  0  0  0  0  0  0
  -11.6850  -28.7721   18.0992 C   0  0  0  0  0  0  0  0  0  0  0  0
  -11.1862  -28.0398   16.8406 C   0  0  0  0  0  0  0  0  0  0  0  0
  -10.8288  -29.0473   15.7465 C   0  0  0  0  0  0  0  0  0  0  0  0
  -10.6611  -28.4651   14.4418 N   0  0  0  0  0  0  0  0  0  0  0  0
  -10.2877  -27.1352   14.0438 C   0  0  0  0  0  0  0  0  0  0  0  0
  -10.0978  -26.1516   14.6940 O   0  0  0  0  0  0  0  0  0  0  0  0
  -10.1855  -27.0913   12.5150 C   0  0  0  0  0  0  0  0  0  0  0  0
   -9.4601  -25.8737   11.9909 C   0  0  0  0  0  0  0  0  0  0  0  0
  -10.5570  -24.8465   11.8882 C   0  0  0  0  0  0  0  0  0  0  0  0
  -11.7073  -25.5864   11.4502 O   0  0  0  0  0  0  0  0  0  0  0  0
  -11.5683  -26.9428   11.9017 C   0  0  0  0  0  0  0  0  0  0  0  0
  -11.4322  -28.0016   19.3456 N   0  0  0  0  0  0  0  0  0  0  0  0
  -10.6714  -28.4960   21.0449 C   0  0  0  0  0  0  0  0  0  0  0  0
  -10.3923  -29.6704   21.1061 O   0  0  0  0  0  0  0  0  0  0  0  0
  -10.4688  -27.2541   22.7750 C   0  0  0  0  0  0  0  0  0  0  0  0
  -11.3262  -26.5475   24.5702 C   0  0  0  0  0  0  0  0  0  0  0  0
  -12.5825  -26.9250   25.2952 C   0  0  0  0  0  0  0  0  0  0  0  0
  -13.0165  -26.4326   26.5548 C   0  0  0  0  0  0  0  0  0  0  0  0
  -12.2572  -25.5027   27.2132 C   0  0  0  0  0  0  0  0  0  0  0  0
  -11.1506  -24.9995   26.6760 N   0  0  0  0  0  0  0  0  0  0  0  0
  -10.7683  -25.4795   25.4441 C   0  0  0  0  0  0  0  0  0  0  0  0
  -13.4875  -29.8145   18.6843 H   0  0  0  0  0  0  0  0  0  0  0  0
  -13.3912  -29.5385   16.9555 H   0  0  0  0  0  0  0  0  0  0  0  0
  -13.7853  -28.1921   18.0415 H   0  0  0  0  0  0  0  0  0  0  0  0
  -11.1614  -29.7248   18.2116 H   0  0  0  0  0  0  0  0  0  0  0  0
  -11.9485  -27.3320   16.4907 H   0  0  0  0  0  0  0  0  0  0  0  0
  -10.2995  -27.4396   17.0671 H   0  0  0  0  0  0  0  0  0  0  0  0
  -11.5996  -29.8158   15.6366 H   0  0  0  0  0  0  0  0  0  0  0  0
   -9.8916  -29.5570   15.9945 H   0  0  0  0  0  0  0  0  0  0  0  0
  -10.8148  -29.0273   13.6132 H   0  0  0  0  0  0  0  0  0  0  0  0
   -9.6830  -28.0062   12.1792 H   0  0  0  0  0  0  0  0  0  0  0  0
   -9.0951  -26.1142   10.9867 H   0  0  0  0  0  0  0  0  0  0  0  0
   -8.6148  -25.5387   12.5896 H   0  0  0  0  0  0  0  0  0  0  0  0
  -10.7883  -24.3798   12.8510 H   0  0  0  0  0  0  0  0  0  0  0  0
  -10.3252  -24.0642   11.1617 H   0  0  0  0  0  0  0  0  0  0  0  0
  -11.6785  -27.5885   11.0242 H   0  0  0  0  0  0  0  0  0  0  0  0
  -12.3882  -27.1646   12.5922 H   0  0  0  0  0  0  0  0  0  0  0  0
  -11.5559  -26.9969   19.3438 H   0  0  0  0  0  0  0  0  0  0  0  0
  -11.2396  -27.6076   23.4044 H   0  0  0  0  0  0  0  0  0  0  0  0
   -9.4556  -27.6331   23.2773 H   0  0  0  0  0  0  0  0  0  0  0  0
  -13.3073  -27.6033   24.8995 H   0  0  0  0  0  0  0  0  0  0  0  0
  -13.9417  -26.7928   26.9939 H   0  0  0  0  0  0  0  0  0  0  0  0
  -12.5404  -25.1065   28.1822 H   0  0  0  0  0  0  0  0  0  0  0  0
  -10.0364  -24.7730   25.0775 H   0  0  0  0  0  0  0  0  0  0  0  0
  1  2  1  0
  2  3  1  0
  3  4  1  0
  4  5  1  0
  5  6  1  0
  6  7  2  0
  6  8  1  0
  8  9  1  0
  9 10  1  0
 10 11  1  0
 11 12  1  0
  2 13  1  0
 13 14  1  0
 14 15  2  0
 14 16  1  0
 16 17  1  0
 17 18  2  0
 18 19  1  0
 19 20  2  0
 20 21  1  0
 21 22  2  0
 12  8  1  0
 22 17  1  0
  1 23  1  0
  1 24  1  0
  1 25  1  0
  2 26  1  0
  3 27  1  0
  3 28  1  0
  4 29  1  0
  4 30  1  0
  5 31  1  0
  8 32  1  0
  9 33  1  0
  9 34  1  0
 10 35  1  0
 10 36  1  0
 12 37  1  0
 12 38  1  0
 13 39  1  0
 16 40  1  0
 16 41  1  0
 18 42  1  0
 19 43  1  0
 20 44  1  0
 22 45  1  0
M  END
>  <Energy>  (60) 
434.663427615888

>  <compound_id>  (60) 
43959

>  <target_id>  (60) 
1

>  <reference_id>  (60) 
88

>  <inspiration_ids>  (60) 
[28, 88]

>  <energy_score>  (60) 
397.8390629085921

>  <distance_score>  (60) 
4.895908709744033

>  <path>  (60) 
/opt/xchem-fragalysis-2/maxwin/BulkDock/SCRATCH/511025/C43959-P88/C43959-P88.minimised.mol

>  <scratch_subdir>  (60) 
/opt/xchem-fragalysis-2/maxwin/BulkDock/SCRATCH/511025/C43959-P88

>  <fragmenstein_runtime>  (60) 
11.918347358703613

>  <fragmenstein_outcome>  (60) 
too moved

>  <fragmenstein_mode>  (60) 
expansion

>  <fragmenstein_error>  (60) 


$$$$
C43960-P28
     RDKit          3D

 45 46  0  0  0  0  0  0  0  0999 V2000
  -12.4603  -30.6516   19.1209 C   0  0  0  0  0  0  0  0  0  0  0  0
  -12.1788  -29.1602   18.9134 C   0  0  0  0  0  0  0  0  0  0  0  0
  -11.9724  -28.5015   17.4974 C   0  0  0  0  0  0  0  0  0  0  0  0
  -12.7483  -29.0856   16.3269 C   0  0  0  0  0  0  0  0  0  0  0  0
  -12.3566  -28.4012   15.1081 N   0  0  0  0  0  0  0  0  0  0  0  0
  -12.4998  -27.0205   14.7100 C   0  0  0  0  0  0  0  0  0  0  0  0
  -13.0493  -26.1042   15.2515 O   0  0  0  0  0  0  0  0  0  0  0  0
  -11.6938  -26.7975   13.4074 C   0  0  0  0  0  0  0  0  0  0  0  0
  -11.3257  -27.9983   12.8560 F   0  0  0  0  0  0  0  0  0  0  0  0
  -10.4284  -25.9954   13.6705 C   0  0  0  0  0  0  0  0  0  0  0  0
  -10.7870  -24.6063   13.1968 C   0  0  0  0  0  0  0  0  0  0  0  0
  -11.6600  -24.8034   12.0818 O   0  0  0  0  0  0  0  0  0  0  0  0
  -12.4527  -25.9704   12.3779 C   0  0  0  0  0  0  0  0  0  0  0  0
  -11.6370  -28.2550   20.0190 N   0  0  0  0  0  0  0  0  0  0  0  0
  -10.5185  -28.6336   21.5891 C   0  0  0  0  0  0  0  0  0  0  0  0
  -10.0246  -29.8050   21.7715 O   0  0  0  0  0  0  0  0  0  0  0  0
  -10.3180  -27.2108   23.0028 C   0  0  0  0  0  0  0  0  0  0  0  0
  -10.7383  -27.1081   25.0339 C   0  0  0  0  0  0  0  0  0  0  0  0
  -11.9119  -27.5527   25.7137 C   0  0  0  0  0  0  0  0  0  0  0  0
  -12.8352  -26.6952   26.3602 C   0  0  0  0  0  0  0  0  0  0  0  0
  -12.5113  -25.3761   26.5179 C   0  0  0  0  0  0  0  0  0  0  0  0
  -11.2836  -24.9527   26.3113 N   0  0  0  0  0  0  0  0  0  0  0  0
  -10.4574  -25.8035   25.6840 C   0  0  0  0  0  0  0  0  0  0  0  0
  -12.2899  -31.2465   18.2188 H   0  0  0  0  0  0  0  0  0  0  0  0
  -13.5124  -30.8241   19.3767 H   0  0  0  0  0  0  0  0  0  0  0  0
  -11.8759  -31.0615   19.9493 H   0  0  0  0  0  0  0  0  0  0  0  0
  -13.2241  -28.8219   19.0316 H   0  0  0  0  0  0  0  0  0  0  0  0
  -10.9195  -28.4427   17.2123 H   0  0  0  0  0  0  0  0  0  0  0  0
  -12.2580  -27.4424   17.5950 H   0  0  0  0  0  0  0  0  0  0  0  0
  -12.5384  -30.1486   16.1854 H   0  0  0  0  0  0  0  0  0  0  0  0
  -13.8232  -28.9380   16.4672 H   0  0  0  0  0  0  0  0  0  0  0  0
  -11.7517  -28.8794   14.4387 H   0  0  0  0  0  0  0  0  0  0  0  0
  -10.1019  -25.9968   14.7150 H   0  0  0  0  0  0  0  0  0  0  0  0
   -9.6086  -26.3956   13.0622 H   0  0  0  0  0  0  0  0  0  0  0  0
  -11.3271  -24.0443   13.9619 H   0  0  0  0  0  0  0  0  0  0  0  0
   -9.9135  -24.0273   12.8852 H   0  0  0  0  0  0  0  0  0  0  0  0
  -13.4284  -25.6255   12.7351 H   0  0  0  0  0  0  0  0  0  0  0  0
  -12.6038  -26.5202   11.4441 H   0  0  0  0  0  0  0  0  0  0  0  0
  -11.8524  -27.2887   20.0037 H   0  0  0  0  0  0  0  0  0  0  0  0
   -9.1872  -27.4041   23.3087 H   0  0  0  0  0  0  0  0  0  0  0  0
  -11.1082  -27.6581   23.5043 H   0  0  0  0  0  0  0  0  0  0  0  0
  -12.2717  -28.5495   25.7098 H   0  0  0  0  0  0  0  0  0  0  0  0
  -13.7841  -27.0871   26.7108 H   0  0  0  0  0  0  0  0  0  0  0  0
  -13.1381  -24.6068   26.9285 H   0  0  0  0  0  0  0  0  0  0  0  0
   -9.5482  -25.2231   25.5394 H   0  0  0  0  0  0  0  0  0  0  0  0
  1  2  1  0
  2  3  1  0
  3  4  1  0
  4  5  1  0
  5  6  1  0
  6  7  2  0
  6  8  1  0
  8  9  1  0
  8 10  1  0
 10 11  1  0
 11 12  1  0
 12 13  1  0
  2 14  1  0
 14 15  1  0
 15 16  2  0
 15 17  1  0
 17 18  1  0
 18 19  2  0
 19 20  1  0
 20 21  2  0
 21 22  1  0
 22 23  2  0
 13  8  1  0
 23 18  1  0
  1 24  1  0
  1 25  1  0
  1 26  1  0
  2 27  1  0
  3 28  1  0
  3 29  1  0
  4 30  1  0
  4 31  1  0
  5 32  1  0
 10 33  1  0
 10 34  1  0
 11 35  1  0
 11 36  1  0
 13 37  1  0
 13 38  1  0
 14 39  1  0
 17 40  1  0
 17 41  1  0
 19 42  1  0
 20 43  1  0
 21 44  1  0
 23 45  1  0
M  END
>  <Energy>  (61) 
427.0304455868179

>  <compound_id>  (61) 
43960

>  <target_id>  (61) 
1

>  <reference_id>  (61) 
28

>  <inspiration_ids>  (61) 
[28, 88]

>  <energy_score>  (61) 
355.91152349702656

>  <distance_score>  (61) 
5.45664491210999

>  <path>  (61) 
/opt/xchem-fragalysis-2/maxwin/BulkDock/SCRATCH/511025/C43960-P28/C43960-P28.minimised.mol

>  <scratch_subdir>  (61) 
/opt/xchem-fragalysis-2/maxwin/BulkDock/SCRATCH/511025/C43960-P28

>  <fragmenstein_runtime>  (61) 
17.3632550239563

>  <fragmenstein_outcome>  (61) 
too moved

>  <fragmenstein_mode>  (61) 
expansion

>  <fragmenstein_error>  (61) 


$$$$
C43960-P88
     RDKit          3D

 45 46  0  0  0  0  0  0  0  0999 V2000
  -11.9353  -28.1439   18.9185 C   0  0  0  0  0  0  0  0  0  0  0  0
  -10.4008  -27.2626   19.5002 C   0  0  0  0  0  0  0  0  0  0  0  0
  -10.0759  -27.2987   17.5755 C   0  0  0  0  0  0  0  0  0  0  0  0
  -10.3709  -28.5380   16.6176 C   0  0  0  0  0  0  0  0  0  0  0  0
  -10.2963  -28.1031   15.2352 N   0  0  0  0  0  0  0  0  0  0  0  0
  -11.2148  -27.3305   14.4369 C   0  0  0  0  0  0  0  0  0  0  0  0
  -12.3099  -26.9170   14.6871 O   0  0  0  0  0  0  0  0  0  0  0  0
  -10.5203  -26.9817   13.1026 C   0  0  0  0  0  0  0  0  0  0  0  0
   -9.5432  -27.8978   12.8111 F   0  0  0  0  0  0  0  0  0  0  0  0
   -9.8628  -25.6192   13.1962 C   0  0  0  0  0  0  0  0  0  0  0  0
  -10.8325  -24.7121   12.4900 C   0  0  0  0  0  0  0  0  0  0  0  0
  -11.3835  -25.5032   11.4321 O   0  0  0  0  0  0  0  0  0  0  0  0
  -11.4771  -26.8538   11.9272 C   0  0  0  0  0  0  0  0  0  0  0  0
  -10.1543  -26.7148   21.5884 N   0  0  0  0  0  0  0  0  0  0  0  0
   -9.2463  -27.5023   23.2505 C   0  0  0  0  0  0  0  0  0  0  0  0
   -8.5051  -28.5117   23.3779 O   0  0  0  0  0  0  0  0  0  0  0  0
   -9.6153  -26.3421   25.1714 C   0  0  0  0  0  0  0  0  0  0  0  0
  -10.6321  -25.7519   26.4864 C   0  0  0  0  0  0  0  0  0  0  0  0
  -10.7948  -26.3403   27.7472 C   0  0  0  0  0  0  0  0  0  0  0  0
  -11.4560  -25.6696   28.7858 C   0  0  0  0  0  0  0  0  0  0  0  0
  -11.9420  -24.4011   28.5559 C   0  0  0  0  0  0  0  0  0  0  0  0
  -11.8146  -23.7783   27.3751 N   0  0  0  0  0  0  0  0  0  0  0  0
  -11.1507  -24.4380   26.3964 C   0  0  0  0  0  0  0  0  0  0  0  0
  -11.7671  -29.2233   18.8386 H   0  0  0  0  0  0  0  0  0  0  0  0
  -12.2219  -27.7664   17.9309 H   0  0  0  0  0  0  0  0  0  0  0  0
  -12.8697  -27.8409   19.3820 H   0  0  0  0  0  0  0  0  0  0  0  0
  -11.0061  -26.3856   19.0297 H   0  0  0  0  0  0  0  0  0  0  0  0
  -10.7642  -26.5368   17.1726 H   0  0  0  0  0  0  0  0  0  0  0  0
   -9.1094  -26.9928   17.1964 H   0  0  0  0  0  0  0  0  0  0  0  0
   -9.6421  -29.3472   16.7030 H   0  0  0  0  0  0  0  0  0  0  0  0
  -11.3614  -28.9797   16.7142 H   0  0  0  0  0  0  0  0  0  0  0  0
   -9.4173  -28.2045   14.7263 H   0  0  0  0  0  0  0  0  0  0  0  0
   -9.6890  -25.2811   14.2208 H   0  0  0  0  0  0  0  0  0  0  0  0
   -8.9087  -25.6353   12.6577 H   0  0  0  0  0  0  0  0  0  0  0  0
  -11.6462  -24.4088   13.1546 H   0  0  0  0  0  0  0  0  0  0  0  0
  -10.3510  -23.8208   12.0799 H   0  0  0  0  0  0  0  0  0  0  0  0
  -12.5229  -27.0385   12.1914 H   0  0  0  0  0  0  0  0  0  0  0  0
  -11.2081  -27.5289   11.1092 H   0  0  0  0  0  0  0  0  0  0  0  0
  -10.7108  -26.0043   21.7946 H   0  0  0  0  0  0  0  0  0  0  0  0
  -10.8181  -26.3620   24.9185 H   0  0  0  0  0  0  0  0  0  0  0  0
   -9.4931  -25.2597   24.9696 H   0  0  0  0  0  0  0  0  0  0  0  0
  -10.4023  -27.3108   28.0019 H   0  0  0  0  0  0  0  0  0  0  0  0
  -11.5649  -26.1288   29.7623 H   0  0  0  0  0  0  0  0  0  0  0  0
  -12.4430  -23.8335   29.3341 H   0  0  0  0  0  0  0  0  0  0  0  0
  -10.9878  -23.8122   25.5234 H   0  0  0  0  0  0  0  0  0  0  0  0
  1  2  1  0
  2  3  1  0
  3  4  1  0
  4  5  1  0
  5  6  1  0
  6  7  2  0
  6  8  1  0
  8  9  1  0
  8 10  1  0
 10 11  1  0
 11 12  1  0
 12 13  1  0
  2 14  1  0
 14 15  1  0
 15 16  2  0
 15 17  1  0
 17 18  1  0
 18 19  2  0
 19 20  1  0
 20 21  2  0
 21 22  1  0
 22 23  2  0
 13  8  1  0
 23 18  1  0
  1 24  1  0
  1 25  1  0
  1 26  1  0
  2 27  1  0
  3 28  1  0
  3 29  1  0
  4 30  1  0
  4 31  1  0
  5 32  1  0
 10 33  1  0
 10 34  1  0
 11 35  1  0
 11 36  1  0
 13 37  1  0
 13 38  1  0
 14 39  1  0
 17 40  1  0
 17 41  1  0
 19 42  1  0
 20 43  1  0
 21 44  1  0
 23 45  1  0
M  END
>  <Energy>  (62) 
844.21010338739563

>  <compound_id>  (62) 
43960

>  <target_id>  (62) 
1

>  <reference_id>  (62) 
88

>  <inspiration_ids>  (62) 
[28, 88]

>  <energy_score>  (62) 
773.0911812976016

>  <distance_score>  (62) 
4.661968421100227

>  <path>  (62) 
/opt/xchem-fragalysis-2/maxwin/BulkDock/SCRATCH/511025/C43960-P88/C43960-P88.minimised.mol

>  <scratch_subdir>  (62) 
/opt/xchem-fragalysis-2/maxwin/BulkDock/SCRATCH/511025/C43960-P88

>  <fragmenstein_runtime>  (62) 
13.46342945098877

>  <fragmenstein_outcome>  (62) 
too moved

>  <fragmenstein_mode>  (62) 
expansion

>  <fragmenstein_error>  (62) 


$$$$
C55212-P28
     RDKit          3D

 41 42  0  0  0  0  0  0  0  0999 V2000
  -11.9976  -27.9174   25.2145 O   0  0  0  0  0  0  0  0  0  0  0  0
  -11.0146  -27.2585   24.8608 C   0  0  0  0  0  0  0  0  0  0  0  0
  -10.5059  -26.4886   25.9834 C   0  0  0  0  0  0  0  0  0  0  0  0
  -10.8747  -25.3289   26.5424 C   0  0  0  0  0  0  0  0  0  0  0  0
  -12.1215  -24.6465   26.2950 C   0  0  0  0  0  0  0  0  0  0  0  0
  -13.2880  -25.3444   25.9877 C   0  0  0  0  0  0  0  0  0  0  0  0
  -14.2600  -24.6907   25.2435 C   0  0  0  0  0  0  0  0  0  0  0  0
  -14.0638  -23.3567   24.9271 C   0  0  0  0  0  0  0  0  0  0  0  0
  -12.9020  -22.7383   25.3612 C   0  0  0  0  0  0  0  0  0  0  0  0
  -11.9548  -23.3435   26.0833 N   0  0  0  0  0  0  0  0  0  0  0  0
  -10.4642  -27.1977   23.1788 O   0  0  0  0  0  0  0  0  0  0  0  0
  -10.5765  -27.7831   21.3078 C   0  0  0  0  0  0  0  0  0  0  0  0
  -11.9488  -28.1790   19.7746 C   0  0  0  0  0  0  0  0  0  0  0  0
  -12.0075  -27.3163   18.3801 C   0  0  0  0  0  0  0  0  0  0  0  0
  -12.7834  -28.0212   17.2548 C   0  0  0  0  0  0  0  0  0  0  0  0
  -12.3989  -27.5457   15.8339 C   0  0  0  0  0  0  0  0  0  0  0  0
  -11.0600  -28.0799   15.3169 C   0  0  0  0  0  0  0  0  0  0  0  0
  -10.2953  -26.8574   14.8647 C   0  0  0  0  0  0  0  0  0  0  0  0
  -11.3823  -25.8316   14.6805 C   0  0  0  0  0  0  0  0  0  0  0  0
  -12.3319  -26.1154   15.7237 O   0  0  0  0  0  0  0  0  0  0  0  0
  -10.3090  -27.1759   26.8119 H   0  0  0  0  0  0  0  0  0  0  0  0
  -10.3395  -24.9364   27.4031 H   0  0  0  0  0  0  0  0  0  0  0  0
  -13.4107  -26.3928   26.2326 H   0  0  0  0  0  0  0  0  0  0  0  0
  -15.1663  -25.2040   24.9365 H   0  0  0  0  0  0  0  0  0  0  0  0
  -14.8050  -22.7891   24.3788 H   0  0  0  0  0  0  0  0  0  0  0  0
  -12.6701  -21.7152   25.0843 H   0  0  0  0  0  0  0  0  0  0  0  0
  -10.2016  -26.8288   20.9575 H   0  0  0  0  0  0  0  0  0  0  0  0
  -10.3171  -28.7435   21.6630 H   0  0  0  0  0  0  0  0  0  0  0  0
  -13.0139  -28.1046   20.0044 H   0  0  0  0  0  0  0  0  0  0  0  0
  -11.8102  -29.2394   19.4914 H   0  0  0  0  0  0  0  0  0  0  0  0
  -12.5207  -26.3750   18.5918 H   0  0  0  0  0  0  0  0  0  0  0  0
  -11.0335  -27.0693   17.9632 H   0  0  0  0  0  0  0  0  0  0  0  0
  -12.6507  -29.1074   17.3119 H   0  0  0  0  0  0  0  0  0  0  0  0
  -13.8503  -27.8213   17.4146 H   0  0  0  0  0  0  0  0  0  0  0  0
  -13.1894  -27.8825   15.1504 H   0  0  0  0  0  0  0  0  0  0  0  0
  -10.5021  -28.6492   16.0652 H   0  0  0  0  0  0  0  0  0  0  0  0
  -11.2366  -28.7585   14.4740 H   0  0  0  0  0  0  0  0  0  0  0  0
   -9.6178  -26.5444   15.6664 H   0  0  0  0  0  0  0  0  0  0  0  0
   -9.7004  -27.0215   13.9626 H   0  0  0  0  0  0  0  0  0  0  0  0
  -11.8863  -25.9410   13.7137 H   0  0  0  0  0  0  0  0  0  0  0  0
  -11.0061  -24.8107   14.7696 H   0  0  0  0  0  0  0  0  0  0  0  0
  1  2  2  0
  2  3  1  0
  3  4  2  3
  4  5  1  0
  5  6  2  0
  6  7  1  0
  7  8  2  0
  8  9  1  0
  9 10  2  0
  2 11  1  0
 11 12  1  0
 12 13  1  0
 13 14  1  0
 14 15  1  0
 15 16  1  0
 16 17  1  0
 17 18  1  0
 18 19  1  0
 19 20  1  0
 10  5  1  0
 20 16  1  0
  3 21  1  0
  4 22  1  0
  6 23  1  0
  7 24  1  0
  8 25  1  0
  9 26  1  0
 12 27  1  0
 12 28  1  0
 13 29  1  0
 13 30  1  0
 14 31  1  0
 14 32  1  0
 15 33  1  0
 15 34  1  0
 16 35  1  0
 17 36  1  0
 17 37  1  0
 18 38  1  0
 18 39  1  0
 19 40  1  0
 19 41  1  0
M  END
>  <Energy>  (63) 
335.2219550499193

>  <compound_id>  (63) 
55212

>  <target_id>  (63) 
1

>  <reference_id>  (63) 
28

>  <inspiration_ids>  (63) 
[28, 88]

>  <energy_score>  (63) 
276.67152088313856

>  <distance_score>  (63) 
6.017416614728922

>  <path>  (63) 
/opt/xchem-fragalysis-2/maxwin/BulkDock/SCRATCH/511025/C55212-P28/C55212-P28.minimised.mol

>  <scratch_subdir>  (63) 
/opt/xchem-fragalysis-2/maxwin/BulkDock/SCRATCH/511025/C55212-P28

>  <fragmenstein_runtime>  (63) 
19.941444396972656

>  <fragmenstein_outcome>  (63) 
too moved

>  <fragmenstein_mode>  (63) 
expansion

>  <fragmenstein_error>  (63) 


$$$$
C55212-P88
     RDKit          3D

 41 42  0  0  0  0  0  0  0  0999 V2000
  -10.5261  -25.4564   25.3281 O   0  0  0  0  0  0  0  0  0  0  0  0
  -11.2528  -26.3158   24.7955 C   0  0  0  0  0  0  0  0  0  0  0  0
  -12.5558  -26.6303   25.5487 C   0  0  0  0  0  0  0  0  0  0  0  0
  -12.8242  -25.5883   26.3854 C   0  0  0  0  0  0  0  0  0  0  0  0
  -12.5186  -25.6075   27.8429 C   0  0  0  0  0  0  0  0  0  0  0  0
  -12.1903  -24.4035   28.4788 C   0  0  0  0  0  0  0  0  0  0  0  0
  -11.6815  -24.4271   29.7750 C   0  0  0  0  0  0  0  0  0  0  0  0
  -11.5212  -25.6493   30.4069 C   0  0  0  0  0  0  0  0  0  0  0  0
  -11.9067  -26.7928   29.7233 C   0  0  0  0  0  0  0  0  0  0  0  0
  -12.3953  -26.8039   28.4585 N   0  0  0  0  0  0  0  0  0  0  0  0
  -10.6484  -27.0349   23.2663 O   0  0  0  0  0  0  0  0  0  0  0  0
  -10.1140  -26.2394   21.5277 C   0  0  0  0  0  0  0  0  0  0  0  0
  -10.7717  -24.4876   20.6216 C   0  0  0  0  0  0  0  0  0  0  0  0
  -10.0821  -22.5806   19.8372 C   0  0  0  0  0  0  0  0  0  0  0  0
   -9.4408  -21.9106   17.8791 C   0  0  0  0  0  0  0  0  0  0  0  0
   -9.6138  -22.9615   16.0533 C   0  0  0  0  0  0  0  0  0  0  0  0
   -9.8479  -22.6560   14.5142 C   0  0  0  0  0  0  0  0  0  0  0  0
  -10.3685  -23.7447   13.5864 C   0  0  0  0  0  0  0  0  0  0  0  0
  -10.2251  -24.9380   14.4179 C   0  0  0  0  0  0  0  0  0  0  0  0
  -10.1511  -24.4336   15.7350 O   0  0  0  0  0  0  0  0  0  0  0  0
  -12.6316  -27.6390   25.9307 H   0  0  0  0  0  0  0  0  0  0  0  0
  -12.7173  -24.5746   25.9945 H   0  0  0  0  0  0  0  0  0  0  0  0
  -12.2580  -23.4542   27.9540 H   0  0  0  0  0  0  0  0  0  0  0  0
  -11.3955  -23.5031   30.2718 H   0  0  0  0  0  0  0  0  0  0  0  0
  -11.1013  -25.7049   31.4034 H   0  0  0  0  0  0  0  0  0  0  0  0
  -11.8139  -27.7740   30.1816 H   0  0  0  0  0  0  0  0  0  0  0  0
   -9.1920  -25.7235   21.4082 H   0  0  0  0  0  0  0  0  0  0  0  0
  -10.0364  -27.1905   20.9951 H   0  0  0  0  0  0  0  0  0  0  0  0
  -11.8207  -24.8039   20.3023 H   0  0  0  0  0  0  0  0  0  0  0  0
  -11.3584  -23.7066   21.1894 H   0  0  0  0  0  0  0  0  0  0  0  0
  -11.0278  -22.0298   20.1580 H   0  0  0  0  0  0  0  0  0  0  0  0
   -9.5622  -21.9896   20.6297 H   0  0  0  0  0  0  0  0  0  0  0  0
   -8.4483  -21.3952   17.9661 H   0  0  0  0  0  0  0  0  0  0  0  0
   -9.5880  -20.8170   17.6376 H   0  0  0  0  0  0  0  0  0  0  0  0
   -8.5996  -23.2876   15.7966 H   0  0  0  0  0  0  0  0  0  0  0  0
  -10.4524  -21.8011   14.3271 H   0  0  0  0  0  0  0  0  0  0  0  0
   -8.8349  -22.6801   14.1135 H   0  0  0  0  0  0  0  0  0  0  0  0
  -11.4053  -23.5967   13.2917 H   0  0  0  0  0  0  0  0  0  0  0  0
   -9.8087  -23.8145   12.6463 H   0  0  0  0  0  0  0  0  0  0  0  0
   -9.3571  -25.5469   14.1791 H   0  0  0  0  0  0  0  0  0  0  0  0
  -11.0892  -25.6055   14.3351 H   0  0  0  0  0  0  0  0  0  0  0  0
  1  2  2  0
  2  3  1  0
  3  4  2  3
  4  5  1  0
  5  6  2  0
  6  7  1  0
  7  8  2  0
  8  9  1  0
  9 10  2  0
  2 11  1  0
 11 12  1  0
 12 13  1  0
 13 14  1  0
 14 15  1  0
 15 16  1  0
 16 17  1  0
 17 18  1  0
 18 19  1  0
 19 20  1  0
 10  5  1  0
 20 16  1  0
  3 21  1  0
  4 22  1  0
  6 23  1  0
  7 24  1  0
  8 25  1  0
  9 26  1  0
 12 27  1  0
 12 28  1  0
 13 29  1  0
 13 30  1  0
 14 31  1  0
 14 32  1  0
 15 33  1  0
 15 34  1  0
 16 35  1  0
 17 36  1  0
 17 37  1  0
 18 38  1  0
 18 39  1  0
 19 40  1  0
 19 41  1  0
M  END
>  <Energy>  (64) 
784.33735734624065

>  <compound_id>  (64) 
55212

>  <target_id>  (64) 
1

>  <reference_id>  (64) 
88

>  <inspiration_ids>  (64) 
[28, 88]

>  <energy_score>  (64) 
725.7869231794646

>  <distance_score>  (64) 
4.149014947917672

>  <path>  (64) 
/opt/xchem-fragalysis-2/maxwin/BulkDock/SCRATCH/511025/C55212-P88/C55212-P88.minimised.mol

>  <scratch_subdir>  (64) 
/opt/xchem-fragalysis-2/maxwin/BulkDock/SCRATCH/511025/C55212-P88

>  <fragmenstein_runtime>  (64) 
13.378807783126831

>  <fragmenstein_outcome>  (64) 
too moved

>  <fragmenstein_mode>  (64) 
expansion

>  <fragmenstein_error>  (64) 


$$$$
C43961-P28
     RDKit          3D

 46 47  0  0  0  0  0  0  0  0999 V2000
  -12.6259  -30.1950   13.9264 C   0  0  0  0  0  0  0  0  0  0  0  0
  -13.8015  -30.4582   15.2831 S   0  0  0  0  0  0  0  0  0  0  0  0
  -12.7010  -31.2940   16.4693 C   0  0  0  0  0  0  0  0  0  0  0  0
  -13.2402  -31.4541   17.9080 C   0  0  0  0  0  0  0  0  0  0  0  0
  -13.5247  -30.1243   18.6150 C   0  0  0  0  0  0  0  0  0  0  0  0
  -14.6482  -29.7106   18.5922 O   0  0  0  0  0  0  0  0  0  0  0  0
  -12.3115  -29.5305   19.1306 N   0  0  0  0  0  0  0  0  0  0  0  0
  -12.0534  -28.1830   19.7022 C   0  0  0  0  0  0  0  0  0  0  0  0
  -10.6521  -27.9342   21.2333 C   0  0  0  0  0  0  0  0  0  0  0  0
  -10.2047  -27.1715   22.8815 N   0  0  0  0  0  0  0  0  0  0  0  0
  -11.0002  -27.2969   24.5989 C   0  0  0  0  0  0  0  0  0  0  0  0
  -12.0492  -27.8855   24.8277 O   0  0  0  0  0  0  0  0  0  0  0  0
  -10.5324  -26.5734   25.8865 C   0  0  0  0  0  0  0  0  0  0  0  0
  -10.3246  -25.1853   25.9677 C   0  0  0  0  0  0  0  0  0  0  0  0
  -11.2943  -24.2913   26.4081 C   0  0  0  0  0  0  0  0  0  0  0  0
  -12.5373  -24.7926   26.6060 C   0  0  0  0  0  0  0  0  0  0  0  0
  -12.7377  -26.0989   26.8221 N   0  0  0  0  0  0  0  0  0  0  0  0
  -11.6079  -26.8819   26.7242 C   0  0  0  0  0  0  0  0  0  0  0  0
  -12.0687  -27.1834   18.3877 C   0  0  0  0  0  0  0  0  0  0  0  0
  -11.3775  -27.5494   17.0769 C   0  0  0  0  0  0  0  0  0  0  0  0
  -11.9932  -26.5996   16.0602 C   0  0  0  0  0  0  0  0  0  0  0  0
  -13.1950  -26.0789   16.6410 O   0  0  0  0  0  0  0  0  0  0  0  0
  -13.4541  -26.8245   17.8462 C   0  0  0  0  0  0  0  0  0  0  0  0
  -13.1360  -29.6894   13.1024 H   0  0  0  0  0  0  0  0  0  0  0  0
  -12.2446  -31.1539   13.5662 H   0  0  0  0  0  0  0  0  0  0  0  0
  -11.7943  -29.5685   14.2583 H   0  0  0  0  0  0  0  0  0  0  0  0
  -12.4855  -32.2912   16.0705 H   0  0  0  0  0  0  0  0  0  0  0  0
  -11.7627  -30.7418   16.4825 H   0  0  0  0  0  0  0  0  0  0  0  0
  -12.5211  -32.0254   18.5073 H   0  0  0  0  0  0  0  0  0  0  0  0
  -14.1649  -32.0444   17.9019 H   0  0  0  0  0  0  0  0  0  0  0  0
  -11.5294  -30.1298   18.9052 H   0  0  0  0  0  0  0  0  0  0  0  0
  -13.0651  -27.9336   20.0259 H   0  0  0  0  0  0  0  0  0  0  0  0
  -10.3785  -28.9290   21.6319 H   0  0  0  0  0  0  0  0  0  0  0  0
  -10.2284  -27.0569   20.7727 H   0  0  0  0  0  0  0  0  0  0  0  0
   -9.3460  -26.7395   22.9534 H   0  0  0  0  0  0  0  0  0  0  0  0
   -9.3821  -24.7455   25.6805 H   0  0  0  0  0  0  0  0  0  0  0  0
  -11.1629  -23.2320   26.5103 H   0  0  0  0  0  0  0  0  0  0  0  0
  -13.3512  -24.0979   26.6696 H   0  0  0  0  0  0  0  0  0  0  0  0
  -11.7770  -27.9118   27.0392 H   0  0  0  0  0  0  0  0  0  0  0  0
  -11.6791  -26.2442   18.7156 H   0  0  0  0  0  0  0  0  0  0  0  0
  -10.2916  -27.4528   17.0856 H   0  0  0  0  0  0  0  0  0  0  0  0
  -11.6088  -28.5724   16.7811 H   0  0  0  0  0  0  0  0  0  0  0  0
  -12.2365  -27.1089   15.1230 H   0  0  0  0  0  0  0  0  0  0  0  0
  -11.3298  -25.7629   15.8297 H   0  0  0  0  0  0  0  0  0  0  0  0
  -14.0264  -26.1999   18.5366 H   0  0  0  0  0  0  0  0  0  0  0  0
  -14.0551  -27.6858   17.5601 H   0  0  0  0  0  0  0  0  0  0  0  0
  1  2  1  0
  2  3  1  0
  3  4  1  0
  4  5  1  0
  5  6  2  0
  5  7  1  0
  7  8  1  0
  8  9  1  0
  9 10  1  0
 10 11  1  0
 11 12  2  0
 11 13  1  0
 13 14  2  0
 14 15  1  0
 15 16  2  0
 16 17  1  0
 17 18  2  0
  8 19  1  0
 19 20  1  0
 20 21  1  0
 21 22  1  0
 22 23  1  0
 18 13  1  0
 23 19  1  0
  1 24  1  0
  1 25  1  0
  1 26  1  0
  3 27  1  0
  3 28  1  0
  4 29  1  0
  4 30  1  0
  7 31  1  0
  8 32  1  0
  9 33  1  0
  9 34  1  0
 10 35  1  0
 14 36  1  0
 15 37  1  0
 16 38  1  0
 18 39  1  0
 19 40  1  0
 20 41  1  0
 20 42  1  0
 21 43  1  0
 21 44  1  0
 23 45  1  0
 23 46  1  0
M  END
>  <Energy>  (65) 
385.21346866750906

>  <compound_id>  (65) 
43961

>  <target_id>  (65) 
1

>  <reference_id>  (65) 
28

>  <inspiration_ids>  (65) 
[28, 88]

>  <energy_score>  (65) 
337.08887622564504

>  <distance_score>  (65) 
6.0769158223459145

>  <path>  (65) 
/opt/xchem-fragalysis-2/maxwin/BulkDock/SCRATCH/511025/C43961-P28/C43961-P28.minimised.mol

>  <scratch_subdir>  (65) 
/opt/xchem-fragalysis-2/maxwin/BulkDock/SCRATCH/511025/C43961-P28

>  <fragmenstein_runtime>  (65) 
12.510679483413696

>  <fragmenstein_outcome>  (65) 
too moved

>  <fragmenstein_mode>  (65) 
expansion

>  <fragmenstein_error>  (65) 


$$$$
C43961-P88
     RDKit          3D

 46 47  0  0  0  0  0  0  0  0999 V2000
  -12.0055  -30.4290   14.0260 C   0  0  0  0  0  0  0  0  0  0  0  0
  -11.0696  -30.9113   15.5016 S   0  0  0  0  0  0  0  0  0  0  0  0
  -12.3245  -31.9725   16.3137 C   0  0  0  0  0  0  0  0  0  0  0  0
  -11.9417  -32.3609   17.7585 C   0  0  0  0  0  0  0  0  0  0  0  0
  -12.2841  -31.2815   18.8017 C   0  0  0  0  0  0  0  0  0  0  0  0
  -13.1847  -31.4465   19.5700 O   0  0  0  0  0  0  0  0  0  0  0  0
  -11.4431  -30.1503   18.5808 N   0  0  0  0  0  0  0  0  0  0  0  0
  -11.4740  -28.7980   19.1528 C   0  0  0  0  0  0  0  0  0  0  0  0
  -10.6371  -28.4681   21.0722 C   0  0  0  0  0  0  0  0  0  0  0  0
  -10.3594  -27.2563   22.6190 N   0  0  0  0  0  0  0  0  0  0  0  0
  -11.3583  -26.9936   24.2491 C   0  0  0  0  0  0  0  0  0  0  0  0
  -12.4052  -27.5942   24.5186 O   0  0  0  0  0  0  0  0  0  0  0  0
  -11.0352  -25.7689   25.5244 C   0  0  0  0  0  0  0  0  0  0  0  0
  -11.7654  -26.0761   26.7201 C   0  0  0  0  0  0  0  0  0  0  0  0
  -11.8418  -25.2464   27.8501 C   0  0  0  0  0  0  0  0  0  0  0  0
  -11.2453  -24.0167   27.7793 C   0  0  0  0  0  0  0  0  0  0  0  0
  -10.6329  -23.5986   26.6655 N   0  0  0  0  0  0  0  0  0  0  0  0
  -10.5852  -24.4459   25.5838 C   0  0  0  0  0  0  0  0  0  0  0  0
  -12.7022  -27.9429   18.4688 C   0  0  0  0  0  0  0  0  0  0  0  0
  -12.2696  -27.3359   17.1096 C   0  0  0  0  0  0  0  0  0  0  0  0
  -13.5742  -26.8387   16.5419 C   0  0  0  0  0  0  0  0  0  0  0  0
  -14.5600  -27.7779   16.9764 O   0  0  0  0  0  0  0  0  0  0  0  0
  -13.9551  -28.6558   17.9548 C   0  0  0  0  0  0  0  0  0  0  0  0
  -11.3814  -29.7881   13.3979 H   0  0  0  0  0  0  0  0  0  0  0  0
  -12.2891  -31.3141   13.4510 H   0  0  0  0  0  0  0  0  0  0  0  0
  -12.9007  -29.8710   14.3125 H   0  0  0  0  0  0  0  0  0  0  0  0
  -12.4069  -32.8850   15.7141 H   0  0  0  0  0  0  0  0  0  0  0  0
  -13.2942  -31.4674   16.2993 H   0  0  0  0  0  0  0  0  0  0  0  0
  -10.8834  -32.6343   17.8458 H   0  0  0  0  0  0  0  0  0  0  0  0
  -12.5145  -33.2547   18.0377 H   0  0  0  0  0  0  0  0  0  0  0  0
  -10.8341  -30.3397   17.7831 H   0  0  0  0  0  0  0  0  0  0  0  0
  -10.7800  -28.3264   18.4272 H   0  0  0  0  0  0  0  0  0  0  0  0
   -9.9954  -27.5862   20.8891 H   0  0  0  0  0  0  0  0  0  0  0  0
  -11.1038  -27.9535   20.2803 H   0  0  0  0  0  0  0  0  0  0  0  0
   -9.6279  -26.6341   22.5815 H   0  0  0  0  0  0  0  0  0  0  0  0
  -12.3256  -27.0111   26.7794 H   0  0  0  0  0  0  0  0  0  0  0  0
  -12.3858  -25.5545   28.7350 H   0  0  0  0  0  0  0  0  0  0  0  0
  -11.2667  -23.3107   28.6037 H   0  0  0  0  0  0  0  0  0  0  0  0
  -10.1176  -23.9075   24.7685 H   0  0  0  0  0  0  0  0  0  0  0  0
  -13.0314  -27.1075   19.0868 H   0  0  0  0  0  0  0  0  0  0  0  0
  -11.5053  -26.5653   17.1765 H   0  0  0  0  0  0  0  0  0  0  0  0
  -11.8719  -28.1201   16.4555 H   0  0  0  0  0  0  0  0  0  0  0  0
  -13.8502  -25.8627   16.9523 H   0  0  0  0  0  0  0  0  0  0  0  0
  -13.5693  -26.7801   15.4503 H   0  0  0  0  0  0  0  0  0  0  0  0
  -14.7067  -28.8569   18.7136 H   0  0  0  0  0  0  0  0  0  0  0  0
  -13.7374  -29.5835   17.4275 H   0  0  0  0  0  0  0  0  0  0  0  0
  1  2  1  0
  2  3  1  0
  3  4  1  0
  4  5  1  0
  5  6  2  0
  5  7  1  0
  7  8  1  0
  8  9  1  0
  9 10  1  0
 10 11  1  0
 11 12  2  0
 11 13  1  0
 13 14  2  0
 14 15  1  0
 15 16  2  0
 16 17  1  0
 17 18  2  0
  8 19  1  0
 19 20  1  0
 20 21  1  0
 21 22  1  0
 22 23  1  0
 18 13  1  0
 23 19  1  0
  1 24  1  0
  1 25  1  0
  1 26  1  0
  3 27  1  0
  3 28  1  0
  4 29  1  0
  4 30  1  0
  7 31  1  0
  8 32  1  0
  9 33  1  0
  9 34  1  0
 10 35  1  0
 14 36  1  0
 15 37  1  0
 16 38  1  0
 18 39  1  0
 19 40  1  0
 20 41  1  0
 20 42  1  0
 21 43  1  0
 21 44  1  0
 23 45  1  0
 23 46  1  0
M  END
>  <Energy>  (66) 
515.25426961311689

>  <compound_id>  (66) 
43961

>  <target_id>  (66) 
1

>  <reference_id>  (66) 
88

>  <inspiration_ids>  (66) 
[28, 88]

>  <energy_score>  (66) 
467.1296771712598

>  <distance_score>  (66) 
6.061783134220666

>  <path>  (66) 
/opt/xchem-fragalysis-2/maxwin/BulkDock/SCRATCH/511025/C43961-P88/C43961-P88.minimised.mol

>  <scratch_subdir>  (66) 
/opt/xchem-fragalysis-2/maxwin/BulkDock/SCRATCH/511025/C43961-P88

>  <fragmenstein_runtime>  (66) 
13.010406255722046

>  <fragmenstein_outcome>  (66) 
too moved

>  <fragmenstein_mode>  (66) 
expansion

>  <fragmenstein_error>  (66) 


$$$$
C55215-P28
     RDKit          3D

 36 37  0  0  0  0  0  0  0  0999 V2000
   -9.9639  -26.3620   21.4002 O   0  0  0  0  0  0  0  0  0  0  0  0
  -10.6313  -27.2521   21.6907 C   0  0  0  0  0  0  0  0  0  0  0  0
  -11.6043  -27.9925   20.0141 N   0  0  0  0  0  0  0  0  0  0  0  0
  -11.6815  -27.4239   18.3665 C   0  0  0  0  0  0  0  0  0  0  0  0
  -11.6295  -27.8554   16.8102 C   0  0  0  0  0  0  0  0  0  0  0  0
  -12.9665  -27.7590   16.1351 N   0  0  0  0  0  0  0  0  0  0  0  0
  -13.9305  -26.6917   16.0967 C   0  0  0  0  0  0  0  0  0  0  0  0
  -13.9491  -25.6359   16.6610 O   0  0  0  0  0  0  0  0  0  0  0  0
  -15.0291  -27.0003   15.0660 C   0  0  0  0  0  0  0  0  0  0  0  0
  -16.0559  -26.1036   15.1636 F   0  0  0  0  0  0  0  0  0  0  0  0
  -14.4502  -26.9380   13.6617 C   0  0  0  0  0  0  0  0  0  0  0  0
  -13.8129  -25.7793   13.4006 F   0  0  0  0  0  0  0  0  0  0  0  0
  -15.4283  -27.0895   12.7353 F   0  0  0  0  0  0  0  0  0  0  0  0
  -13.5741  -27.9512   13.4501 F   0  0  0  0  0  0  0  0  0  0  0  0
  -10.7625  -26.8206   16.0390 C   0  0  0  0  0  0  0  0  0  0  0  0
  -10.5772  -27.4098   14.6471 C   0  0  0  0  0  0  0  0  0  0  0  0
  -10.9552  -28.7949   14.7574 O   0  0  0  0  0  0  0  0  0  0  0  0
  -10.9873  -29.0844   16.1808 C   0  0  0  0  0  0  0  0  0  0  0  0
  -10.7036  -27.4162   23.7764 C   0  0  0  0  0  0  0  0  0  0  0  0
  -10.7446  -26.4809   25.2964 C   0  0  0  0  0  0  0  0  0  0  0  0
  -10.5454  -27.0398   26.5130 N   0  0  0  0  0  0  0  0  0  0  0  0
  -11.4356  -27.9374   26.5391 C   0  0  0  0  0  0  0  0  0  0  0  0
  -12.4442  -27.5636   25.2567 S   0  0  0  0  0  0  0  0  0  0  0  0
  -12.2253  -28.6757   20.2817 H   0  0  0  0  0  0  0  0  0  0  0  0
  -11.4809  -26.3699   18.4317 H   0  0  0  0  0  0  0  0  0  0  0  0
  -12.7805  -27.3818   18.4573 H   0  0  0  0  0  0  0  0  0  0  0  0
  -13.2348  -28.4745   15.4596 H   0  0  0  0  0  0  0  0  0  0  0  0
  -15.4510  -27.9890   15.2719 H   0  0  0  0  0  0  0  0  0  0  0  0
   -9.7758  -26.7387   16.4991 H   0  0  0  0  0  0  0  0  0  0  0  0
  -11.2070  -25.8240   15.9794 H   0  0  0  0  0  0  0  0  0  0  0  0
   -9.5392  -27.3412   14.3073 H   0  0  0  0  0  0  0  0  0  0  0  0
  -11.2230  -26.9328   13.9046 H   0  0  0  0  0  0  0  0  0  0  0  0
   -9.9367  -29.2154   16.4102 H   0  0  0  0  0  0  0  0  0  0  0  0
  -11.5597  -30.0049   16.3219 H   0  0  0  0  0  0  0  0  0  0  0  0
  -10.5202  -25.4032   25.3290 H   0  0  0  0  0  0  0  0  0  0  0  0
  -11.5484  -28.5929   27.3779 H   0  0  0  0  0  0  0  0  0  0  0  0
  1  2  2  0
  2  3  1  0
  3  4  1  0
  4  5  1  0
  5  6  1  0
  6  7  1  0
  7  8  2  0
  7  9  1  0
  9 10  1  0
  9 11  1  0
 11 12  1  0
 11 13  1  0
 11 14  1  0
  5 15  1  0
 15 16  1  0
 16 17  1  0
 17 18  1  0
  2 19  1  0
 19 20  2  0
 20 21  1  0
 21 22  2  0
 22 23  1  0
 18  5  1  0
 23 19  1  0
  3 24  1  0
  4 25  1  0
  4 26  1  0
  6 27  1  0
  9 28  1  0
 15 29  1  0
 15 30  1  0
 16 31  1  0
 16 32  1  0
 18 33  1  0
 18 34  1  0
 20 35  1  0
 22 36  1  0
M  END
>  <Energy>  (67) 
646.27498377716836

>  <compound_id>  (67) 
55215

>  <target_id>  (67) 
1

>  <reference_id>  (67) 
28

>  <inspiration_ids>  (67) 
[28, 88]

>  <energy_score>  (67) 
539.3065072861689

>  <distance_score>  (67) 
5.565205910730751

>  <path>  (67) 
/opt/xchem-fragalysis-2/maxwin/BulkDock/SCRATCH/511025/C55215-P28/C55215-P28.minimised.mol

>  <scratch_subdir>  (67) 
/opt/xchem-fragalysis-2/maxwin/BulkDock/SCRATCH/511025/C55215-P28

>  <fragmenstein_runtime>  (67) 
12.422143936157227

>  <fragmenstein_outcome>  (67) 
too moved

>  <fragmenstein_mode>  (67) 
expansion

>  <fragmenstein_error>  (67) 


$$$$
C55215-P88
     RDKit          3D

 36 37  0  0  0  0  0  0  0  0999 V2000
   -9.6099  -26.2935   21.3299 O   0  0  0  0  0  0  0  0  0  0  0  0
  -10.4007  -27.1230   21.4727 C   0  0  0  0  0  0  0  0  0  0  0  0
  -11.1050  -27.8001   19.6038 N   0  0  0  0  0  0  0  0  0  0  0  0
  -10.8322  -27.3167   18.1420 C   0  0  0  0  0  0  0  0  0  0  0  0
  -11.5678  -28.1608   17.0309 C   0  0  0  0  0  0  0  0  0  0  0  0
  -11.2163  -27.6340   15.6817 N   0  0  0  0  0  0  0  0  0  0  0  0
  -11.9870  -26.8550   14.7368 C   0  0  0  0  0  0  0  0  0  0  0  0
  -13.0763  -26.3680   14.8314 O   0  0  0  0  0  0  0  0  0  0  0  0
  -11.1864  -26.6873   13.4473 C   0  0  0  0  0  0  0  0  0  0  0  0
  -10.0258  -27.4196   13.4979 F   0  0  0  0  0  0  0  0  0  0  0  0
  -12.0413  -27.1475   12.2841 C   0  0  0  0  0  0  0  0  0  0  0  0
  -13.1259  -26.3657   12.0868 F   0  0  0  0  0  0  0  0  0  0  0  0
  -12.4664  -28.4228   12.4401 F   0  0  0  0  0  0  0  0  0  0  0  0
  -11.3343  -27.1114   11.1256 F   0  0  0  0  0  0  0  0  0  0  0  0
  -11.2450  -29.6406   17.0104 C   0  0  0  0  0  0  0  0  0  0  0  0
  -12.4087  -30.1983   16.2104 C   0  0  0  0  0  0  0  0  0  0  0  0
  -13.5480  -29.3817   16.5146 O   0  0  0  0  0  0  0  0  0  0  0  0
  -13.0893  -28.2316   17.2443 C   0  0  0  0  0  0  0  0  0  0  0  0
  -10.8803  -27.3054   23.5066 C   0  0  0  0  0  0  0  0  0  0  0  0
  -11.0082  -26.0912   24.9210 C   0  0  0  0  0  0  0  0  0  0  0  0
  -11.3997  -26.0673   26.2824 N   0  0  0  0  0  0  0  0  0  0  0  0
  -12.4133  -26.8319   26.3158 C   0  0  0  0  0  0  0  0  0  0  0  0
  -12.8197  -27.2732   24.7730 S   0  0  0  0  0  0  0  0  0  0  0  0
  -11.7823  -28.3904   19.7374 H   0  0  0  0  0  0  0  0  0  0  0  0
  -11.3678  -26.4233   18.0094 H   0  0  0  0  0  0  0  0  0  0  0  0
   -9.8263  -27.2568   17.7691 H   0  0  0  0  0  0  0  0  0  0  0  0
  -10.2893  -27.8130   15.2890 H   0  0  0  0  0  0  0  0  0  0  0  0
  -10.9036  -25.6355   13.3432 H   0  0  0  0  0  0  0  0  0  0  0  0
  -11.2864  -30.0608   18.0200 H   0  0  0  0  0  0  0  0  0  0  0  0
  -10.2781  -29.8978   16.5677 H   0  0  0  0  0  0  0  0  0  0  0  0
  -12.2278  -30.1432   15.1315 H   0  0  0  0  0  0  0  0  0  0  0  0
  -12.6268  -31.2385   16.4691 H   0  0  0  0  0  0  0  0  0  0  0  0
  -13.3517  -28.4113   18.2910 H   0  0  0  0  0  0  0  0  0  0  0  0
  -13.6417  -27.3453   16.9275 H   0  0  0  0  0  0  0  0  0  0  0  0
  -10.4223  -25.1564   24.9066 H   0  0  0  0  0  0  0  0  0  0  0  0
  -13.0044  -27.0120   27.2038 H   0  0  0  0  0  0  0  0  0  0  0  0
  1  2  2  0
  2  3  1  0
  3  4  1  0
  4  5  1  0
  5  6  1  0
  6  7  1  0
  7  8  2  0
  7  9  1  0
  9 10  1  0
  9 11  1  0
 11 12  1  0
 11 13  1  0
 11 14  1  0
  5 15  1  0
 15 16  1  0
 16 17  1  0
 17 18  1  0
  2 19  1  0
 19 20  2  0
 20 21  1  0
 21 22  2  0
 22 23  1  0
 18  5  1  0
 23 19  1  0
  3 24  1  0
  4 25  1  0
  4 26  1  0
  6 27  1  0
  9 28  1  0
 15 29  1  0
 15 30  1  0
 16 31  1  0
 16 32  1  0
 18 33  1  0
 18 34  1  0
 20 35  1  0
 22 36  1  0
M  END
>  <Energy>  (68) 
661.11976616558024

>  <compound_id>  (68) 
55215

>  <target_id>  (68) 
1

>  <reference_id>  (68) 
88

>  <inspiration_ids>  (68) 
[28, 88]

>  <energy_score>  (68) 
554.1512896745812

>  <distance_score>  (68) 
5.508536201066476

>  <path>  (68) 
/opt/xchem-fragalysis-2/maxwin/BulkDock/SCRATCH/511025/C55215-P88/C55215-P88.minimised.mol

>  <scratch_subdir>  (68) 
/opt/xchem-fragalysis-2/maxwin/BulkDock/SCRATCH/511025/C55215-P88

>  <fragmenstein_runtime>  (68) 
9.881482362747192

>  <fragmenstein_outcome>  (68) 
too moved

>  <fragmenstein_mode>  (68) 
expansion

>  <fragmenstein_error>  (68) 


$$$$
C55218-P28
     RDKit          3D

 47 49  0  0  0  0  0  0  0  0999 V2000
  -11.1911  -21.5233   22.2454 C   0  0  0  0  0  0  0  0  0  0  0  0
  -12.1820  -22.6413   22.4884 C   0  0  0  0  0  0  0  0  0  0  0  0
  -12.4327  -23.6899   20.7759 C   0  0  0  0  0  0  0  0  0  0  0  0
  -13.3399  -24.8617   19.6057 N   0  0  0  0  0  0  0  0  0  0  0  0
  -13.7275  -26.2684   19.6905 C   0  0  0  0  0  0  0  0  0  0  0  0
  -13.8336  -24.6916   18.0857 C   0  0  0  0  0  0  0  0  0  0  0  0
  -13.4145  -25.7317   16.9864 C   0  0  0  0  0  0  0  0  0  0  0  0
  -14.1861  -26.0438   15.8737 C   0  0  0  0  0  0  0  0  0  0  0  0
  -13.3265  -27.0665   14.7959 S   0  0  0  0  0  0  0  0  0  0  0  0
  -11.9989  -27.0435   15.8742 C   0  0  0  0  0  0  0  0  0  0  0  0
  -12.1646  -26.3452   16.9767 N   0  0  0  0  0  0  0  0  0  0  0  0
  -12.2794  -22.7381   24.3339 N   0  0  0  0  0  0  0  0  0  0  0  0
  -11.2867  -23.5948   25.4863 C   0  0  0  0  0  0  0  0  0  0  0  0
  -10.3689  -24.3757   25.2960 O   0  0  0  0  0  0  0  0  0  0  0  0
  -11.4975  -23.3227   26.9298 C   0  0  0  0  0  0  0  0  0  0  0  0
  -12.5529  -22.5124   27.1447 C   0  0  0  0  0  0  0  0  0  0  0  0
  -12.3578  -21.6249   28.0836 N   0  0  0  0  0  0  0  0  0  0  0  0
  -11.2277  -22.0076   28.6143 N   0  0  0  0  0  0  0  0  0  0  0  0
  -10.7581  -23.2663   28.1824 C   0  0  0  0  0  0  0  0  0  0  0  0
  -10.2063  -24.3276   29.5400 C   0  0  0  0  0  0  0  0  0  0  0  0
  -10.1080  -24.2192   31.5812 C   0  0  0  0  0  0  0  0  0  0  0  0
   -8.9836  -25.0554   32.0823 C   0  0  0  0  0  0  0  0  0  0  0  0
   -8.1821  -25.5892   30.8135 C   0  0  0  0  0  0  0  0  0  0  0  0
   -8.8855  -24.8659   29.4238 O   0  0  0  0  0  0  0  0  0  0  0  0
  -10.2190  -21.7314   22.6919 H   0  0  0  0  0  0  0  0  0  0  0  0
  -11.5478  -20.6008   22.7136 H   0  0  0  0  0  0  0  0  0  0  0  0
  -11.0688  -21.3583   21.1767 H   0  0  0  0  0  0  0  0  0  0  0  0
  -13.1463  -22.1839   22.4988 H   0  0  0  0  0  0  0  0  0  0  0  0
  -12.4892  -22.7738   20.1929 H   0  0  0  0  0  0  0  0  0  0  0  0
  -11.5281  -24.2813   20.7628 H   0  0  0  0  0  0  0  0  0  0  0  0
  -13.8860  -26.5405   20.6891 H   0  0  0  0  0  0  0  0  0  0  0  0
  -13.0480  -26.9697   19.1910 H   0  0  0  0  0  0  0  0  0  0  0  0
  -14.7110  -26.4989   19.2513 H   0  0  0  0  0  0  0  0  0  0  0  0
  -13.5986  -23.7268   17.7206 H   0  0  0  0  0  0  0  0  0  0  0  0
  -14.9257  -24.7115   18.0161 H   0  0  0  0  0  0  0  0  0  0  0  0
  -15.1780  -25.6926   15.6268 H   0  0  0  0  0  0  0  0  0  0  0  0
  -11.0771  -27.5698   15.6601 H   0  0  0  0  0  0  0  0  0  0  0  0
  -12.9040  -22.0986   24.8212 H   0  0  0  0  0  0  0  0  0  0  0  0
  -13.4398  -22.5470   26.5557 H   0  0  0  0  0  0  0  0  0  0  0  0
  -10.9732  -21.4951   29.4443 H   0  0  0  0  0  0  0  0  0  0  0  0
  -10.5761  -23.3216   29.8309 H   0  0  0  0  0  0  0  0  0  0  0  0
  -11.0249  -24.4511   32.1123 H   0  0  0  0  0  0  0  0  0  0  0  0
  -10.1090  -23.4003   32.3253 H   0  0  0  0  0  0  0  0  0  0  0  0
   -8.4428  -24.5387   32.8736 H   0  0  0  0  0  0  0  0  0  0  0  0
   -9.4129  -25.7857   32.6892 H   0  0  0  0  0  0  0  0  0  0  0  0
   -7.0878  -25.4934   30.8521 H   0  0  0  0  0  0  0  0  0  0  0  0
   -8.3361  -26.6426   30.5549 H   0  0  0  0  0  0  0  0  0  0  0  0
  1  2  1  0
  2  3  1  0
  3  4  1  0
  4  5  1  0
  4  6  1  0
  6  7  1  0
  7  8  2  0
  8  9  1  0
  9 10  1  0
 10 11  2  0
  2 12  1  0
 12 13  1  0
 13 14  2  0
 13 15  1  0
 15 16  1  0
 16 17  2  0
 17 18  1  0
 18 19  1  0
 19 20  1  0
 20 21  1  0
 21 22  1  0
 22 23  1  0
 23 24  1  0
 11  7  1  0
 19 15  2  0
 24 20  1  0
  1 25  1  0
  1 26  1  0
  1 27  1  0
  2 28  1  0
  3 29  1  0
  3 30  1  0
  5 31  1  0
  5 32  1  0
  5 33  1  0
  6 34  1  0
  6 35  1  0
  8 36  1  0
 10 37  1  0
 12 38  1  0
 16 39  1  0
 18 40  1  0
 20 41  1  0
 21 42  1  0
 21 43  1  0
 22 44  1  0
 22 45  1  0
 23 46  1  0
 23 47  1  0
M  END
>  <Energy>  (69) 
638.12778599523358

>  <compound_id>  (69) 
55218

>  <target_id>  (69) 
1

>  <reference_id>  (69) 
28

>  <inspiration_ids>  (69) 
[28, 88]

>  <energy_score>  (69) 
520.6956452715608

>  <distance_score>  (69) 
3.995533925963735

>  <path>  (69) 
/opt/xchem-fragalysis-2/maxwin/BulkDock/SCRATCH/511025/C55218-P28/C55218-P28.minimised.mol

>  <scratch_subdir>  (69) 
/opt/xchem-fragalysis-2/maxwin/BulkDock/SCRATCH/511025/C55218-P28

>  <fragmenstein_runtime>  (69) 
15.37970495223999

>  <fragmenstein_outcome>  (69) 
too moved

>  <fragmenstein_mode>  (69) 
expansion

>  <fragmenstein_error>  (69) 


$$$$
C55218-P88
     RDKit          3D

 47 49  0  0  0  0  0  0  0  0999 V2000
  -12.4672  -27.5239   24.8143 C   0  0  0  0  0  0  0  0  0  0  0  0
  -10.9296  -27.3442   23.5294 C   0  0  0  0  0  0  0  0  0  0  0  0
  -10.4759  -27.8008   21.4030 C   0  0  0  0  0  0  0  0  0  0  0  0
  -11.4331  -28.1372   19.5515 N   0  0  0  0  0  0  0  0  0  0  0  0
  -12.2439  -27.2358   18.6307 C   0  0  0  0  0  0  0  0  0  0  0  0
  -11.6017  -29.5605   18.8538 C   0  0  0  0  0  0  0  0  0  0  0  0
  -11.2202  -29.6685   17.3653 C   0  0  0  0  0  0  0  0  0  0  0  0
  -11.3482  -30.8150   16.5957 C   0  0  0  0  0  0  0  0  0  0  0  0
  -10.9299  -30.5110   14.9558 S   0  0  0  0  0  0  0  0  0  0  0  0
  -10.5856  -28.8893   15.3681 C   0  0  0  0  0  0  0  0  0  0  0  0
  -10.7827  -28.5699   16.6269 N   0  0  0  0  0  0  0  0  0  0  0  0
  -10.6896  -25.9335   24.8801 N   0  0  0  0  0  0  0  0  0  0  0  0
  -11.0915  -25.8787   26.3862 C   0  0  0  0  0  0  0  0  0  0  0  0
  -11.5766  -26.7289   27.1054 O   0  0  0  0  0  0  0  0  0  0  0  0
  -10.9268  -24.5306   26.9538 C   0  0  0  0  0  0  0  0  0  0  0  0
  -11.2533  -23.3177   26.3090 C   0  0  0  0  0  0  0  0  0  0  0  0
  -11.1516  -22.2644   27.1071 N   0  0  0  0  0  0  0  0  0  0  0  0
  -10.6934  -22.7554   28.2437 N   0  0  0  0  0  0  0  0  0  0  0  0
  -10.6633  -24.1203   28.2624 C   0  0  0  0  0  0  0  0  0  0  0  0
  -10.4068  -24.8030   29.5484 C   0  0  0  0  0  0  0  0  0  0  0  0
  -11.4133  -24.4540   30.6318 C   0  0  0  0  0  0  0  0  0  0  0  0
  -10.6983  -23.4611   31.5194 C   0  0  0  0  0  0  0  0  0  0  0  0
   -9.2688  -23.9109   31.3808 C   0  0  0  0  0  0  0  0  0  0  0  0
   -9.1326  -24.3382   30.0166 O   0  0  0  0  0  0  0  0  0  0  0  0
  -12.4672  -28.1417   25.7159 H   0  0  0  0  0  0  0  0  0  0  0  0
  -12.7200  -26.5080   25.1734 H   0  0  0  0  0  0  0  0  0  0  0  0
  -13.5037  -27.6025   24.4589 H   0  0  0  0  0  0  0  0  0  0  0  0
   -9.8862  -27.7709   23.7782 H   0  0  0  0  0  0  0  0  0  0  0  0
  -10.1577  -26.7214   21.6114 H   0  0  0  0  0  0  0  0  0  0  0  0
   -9.8606  -27.2645   20.7341 H   0  0  0  0  0  0  0  0  0  0  0  0
  -12.9468  -27.8152   18.0166 H   0  0  0  0  0  0  0  0  0  0  0  0
  -12.9405  -26.5282   19.0998 H   0  0  0  0  0  0  0  0  0  0  0  0
  -11.5671  -26.7525   17.9289 H   0  0  0  0  0  0  0  0  0  0  0  0
  -12.6839  -29.7742   18.8695 H   0  0  0  0  0  0  0  0  0  0  0  0
  -11.1971  -30.3711   19.4541 H   0  0  0  0  0  0  0  0  0  0  0  0
  -11.6791  -31.7955   16.9052 H   0  0  0  0  0  0  0  0  0  0  0  0
  -10.2296  -28.1712   14.6401 H   0  0  0  0  0  0  0  0  0  0  0  0
  -10.2317  -25.0604   24.6224 H   0  0  0  0  0  0  0  0  0  0  0  0
  -11.6067  -23.1379   25.3048 H   0  0  0  0  0  0  0  0  0  0  0  0
  -10.4759  -22.1069   28.9935 H   0  0  0  0  0  0  0  0  0  0  0  0
  -10.3946  -25.8807   29.3990 H   0  0  0  0  0  0  0  0  0  0  0  0
  -11.6281  -25.3631   31.2044 H   0  0  0  0  0  0  0  0  0  0  0  0
  -12.3536  -24.0691   30.2310 H   0  0  0  0  0  0  0  0  0  0  0  0
  -10.8198  -22.4467   31.1257 H   0  0  0  0  0  0  0  0  0  0  0  0
  -11.0424  -23.4580   32.5550 H   0  0  0  0  0  0  0  0  0  0  0  0
   -9.0539  -24.7647   32.0323 H   0  0  0  0  0  0  0  0  0  0  0  0
   -8.5521  -23.1153   31.5957 H   0  0  0  0  0  0  0  0  0  0  0  0
  1  2  1  0
  2  3  1  0
  3  4  1  0
  4  5  1  0
  4  6  1  0
  6  7  1  0
  7  8  2  0
  8  9  1  0
  9 10  1  0
 10 11  2  0
  2 12  1  0
 12 13  1  0
 13 14  2  0
 13 15  1  0
 15 16  1  0
 16 17  2  0
 17 18  1  0
 18 19  1  0
 19 20  1  0
 20 21  1  0
 21 22  1  0
 22 23  1  0
 23 24  1  0
 11  7  1  0
 19 15  2  0
 24 20  1  0
  1 25  1  0
  1 26  1  0
  1 27  1  0
  2 28  1  0
  3 29  1  0
  3 30  1  0
  5 31  1  0
  5 32  1  0
  5 33  1  0
  6 34  1  0
  6 35  1  0
  8 36  1  0
 10 37  1  0
 12 38  1  0
 16 39  1  0
 18 40  1  0
 20 41  1  0
 21 42  1  0
 21 43  1  0
 22 44  1  0
 22 45  1  0
 23 46  1  0
 23 47  1  0
M  END
>  <Energy>  (70) 
664.37884909226921

>  <compound_id>  (70) 
55218

>  <target_id>  (70) 
1

>  <reference_id>  (70) 
88

>  <inspiration_ids>  (70) 
[28, 88]

>  <energy_score>  (70) 
546.9467083686047

>  <distance_score>  (70) 
3.805820490776356

>  <path>  (70) 
/opt/xchem-fragalysis-2/maxwin/BulkDock/SCRATCH/511025/C55218-P88/C55218-P88.minimised.mol

>  <scratch_subdir>  (70) 
/opt/xchem-fragalysis-2/maxwin/BulkDock/SCRATCH/511025/C55218-P88

>  <fragmenstein_runtime>  (70) 
20.873525142669678

>  <fragmenstein_outcome>  (70) 
too moved

>  <fragmenstein_mode>  (70) 
expansion

>  <fragmenstein_error>  (70) 


$$$$
C50687-P127
     RDKit          3D

 41 43  0  0  0  0  0  0  0  0999 V2000
    5.2467   -3.7806   11.8776 C   0  0  0  0  0  0  0  0  0  0  0  0
    5.4870   -2.5924   12.5942 C   0  0  0  0  0  0  0  0  0  0  0  0
    5.8255   -2.9119   14.3853 C   0  0  0  0  0  0  0  0  0  0  0  0
    6.7161   -1.6589   12.5706 C   0  0  0  0  0  0  0  0  0  0  0  0
    7.3437   -1.3011   13.5575 O   0  0  0  0  0  0  0  0  0  0  0  0
    7.2280   -1.2681   11.4326 O   0  0  0  0  0  0  0  0  0  0  0  0
    3.8775   -2.1364   11.7402 N   0  0  0  0  0  0  0  0  0  0  0  0
    3.1477   -3.2218   11.9312 C   0  0  0  0  0  0  0  0  0  0  0  0
    2.9247   -2.6264   10.6327 C   0  0  0  0  0  0  0  0  0  0  0  0
    1.6376   -1.4406   10.3678 C   0  0  0  0  0  0  0  0  0  0  0  0
   -0.0860   -1.0176   10.3260 N   0  0  0  0  0  0  0  0  0  0  0  0
   -1.4356   -1.1867    8.9073 C   0  0  0  0  0  0  0  0  0  0  0  0
   -1.2349   -1.6634    7.8073 O   0  0  0  0  0  0  0  0  0  0  0  0
   -2.9411   -0.6003    8.9511 C   0  0  0  0  0  0  0  0  0  0  0  0
   -3.4331    0.5965    8.3166 C   0  0  0  0  0  0  0  0  0  0  0  0
   -4.7751    0.5890    7.7687 C   0  0  0  0  0  0  0  0  0  0  0  0
   -5.2971   -0.6718    7.8132 C   0  0  0  0  0  0  0  0  0  0  0  0
   -4.0043   -1.7406    7.9297 S   0  0  0  0  0  0  0  0  0  0  0  0
   -6.6710   -1.0637    7.3673 C   0  0  0  0  0  0  0  0  0  0  0  0
   -7.5244    0.1298    7.2107 N   0  0  0  0  0  0  0  0  0  0  0  0
   -6.8356    1.1610    6.4195 C   0  0  0  0  0  0  0  0  0  0  0  0
   -5.5620    1.6999    7.1190 C   0  0  0  0  0  0  0  0  0  0  0  0
    2.4269   -0.9633   11.5965 N   0  0  0  0  0  0  0  0  0  0  0  0
    4.5870   -4.1090   11.0547 H   0  0  0  0  0  0  0  0  0  0  0  0
    4.9484   -4.7218   12.2744 H   0  0  0  0  0  0  0  0  0  0  0  0
    6.1927   -3.5473   11.3741 H   0  0  0  0  0  0  0  0  0  0  0  0
    4.9839   -3.2296   14.9910 H   0  0  0  0  0  0  0  0  0  0  0  0
    6.7594   -3.4254   14.5560 H   0  0  0  0  0  0  0  0  0  0  0  0
    6.1473   -2.0399   14.8928 H   0  0  0  0  0  0  0  0  0  0  0  0
    7.9752   -0.7286   11.7431 H   0  0  0  0  0  0  0  0  0  0  0  0
    3.2195   -4.1775   12.4438 H   0  0  0  0  0  0  0  0  0  0  0  0
    3.3603   -3.1481    9.7364 H   0  0  0  0  0  0  0  0  0  0  0  0
   -0.5227   -0.6670   11.1842 H   0  0  0  0  0  0  0  0  0  0  0  0
   -2.8382    1.4814    8.1644 H   0  0  0  0  0  0  0  0  0  0  0  0
   -7.1362   -1.7254    8.1024 H   0  0  0  0  0  0  0  0  0  0  0  0
   -6.6190   -1.6049    6.4146 H   0  0  0  0  0  0  0  0  0  0  0  0
   -8.3879   -0.1502    6.7485 H   0  0  0  0  0  0  0  0  0  0  0  0
   -6.5748    0.7537    5.4338 H   0  0  0  0  0  0  0  0  0  0  0  0
   -7.5208    1.9973    6.2409 H   0  0  0  0  0  0  0  0  0  0  0  0
   -5.8607    2.4510    7.8536 H   0  0  0  0  0  0  0  0  0  0  0  0
   -4.9357    2.2093    6.3791 H   0  0  0  0  0  0  0  0  0  0  0  0
  1  2  1  0
  2  3  1  0
  2  4  1  0
  4  5  2  0
  4  6  1  0
  2  7  1  0
  7  8  1  0
  8  9  2  0
  9 10  1  0
 10 11  1  0
 11 12  1  0
 12 13  2  0
 12 14  1  0
 14 15  2  0
 15 16  1  0
 16 17  2  0
 17 18  1  0
 17 19  1  0
 19 20  1  0
 20 21  1  0
 21 22  1  0
 10 23  2  0
 23  7  1  0
 18 14  1  0
 22 16  1  0
  1 24  1  0
  1 25  1  0
  1 26  1  0
  3 27  1  0
  3 28  1  0
  3 29  1  0
  6 30  1  0
  8 31  1  0
  9 32  1  0
 11 33  1  0
 15 34  1  0
 19 35  1  0
 19 36  1  0
 20 37  1  0
 21 38  1  0
 21 39  1  0
 22 40  1  0
 22 41  1  0
M  END
>  <Energy>  (71) 
760.05342116904069

>  <compound_id>  (71) 
50687

>  <target_id>  (71) 
1

>  <reference_id>  (71) 
127

>  <inspiration_ids>  (71) 
[127, 146]

>  <energy_score>  (71) 
688.3142330638082

>  <distance_score>  (71) 
5.850105989276532

>  <path>  (71) 
/opt/xchem-fragalysis-2/maxwin/BulkDock/SCRATCH/511025/C50687-P127/C50687-P127.minimised.mol

>  <scratch_subdir>  (71) 
/opt/xchem-fragalysis-2/maxwin/BulkDock/SCRATCH/511025/C50687-P127

>  <fragmenstein_runtime>  (71) 
69.98224878311157

>  <fragmenstein_outcome>  (71) 
too moved

>  <fragmenstein_mode>  (71) 
expansion

>  <fragmenstein_error>  (71) 


$$$$
C50687-P146
     RDKit          3D

 41 43  0  0  0  0  0  0  0  0999 V2000
    6.6021   -1.2298   11.8105 C   0  0  0  0  0  0  0  0  0  0  0  0
    5.9075   -2.4521   12.3975 C   0  0  0  0  0  0  0  0  0  0  0  0
    5.8366   -2.6596   14.3228 C   0  0  0  0  0  0  0  0  0  0  0  0
    7.4019   -2.1463   13.6088 C   0  0  0  0  0  0  0  0  0  0  0  0
    8.1191   -2.9503   14.1966 O   0  0  0  0  0  0  0  0  0  0  0  0
    7.7285   -0.8883   13.9834 O   0  0  0  0  0  0  0  0  0  0  0  0
    4.0923   -2.9251   11.7472 N   0  0  0  0  0  0  0  0  0  0  0  0
    3.6272   -3.9606   10.8171 C   0  0  0  0  0  0  0  0  0  0  0  0
    2.8085   -3.4179    9.7133 C   0  0  0  0  0  0  0  0  0  0  0  0
    1.6153   -2.1488   10.2109 C   0  0  0  0  0  0  0  0  0  0  0  0
   -0.0929   -1.3656   10.2345 N   0  0  0  0  0  0  0  0  0  0  0  0
   -1.6627   -1.5403    9.0055 C   0  0  0  0  0  0  0  0  0  0  0  0
   -1.6153   -2.2990    8.0561 O   0  0  0  0  0  0  0  0  0  0  0  0
   -3.0709   -0.7124    8.9346 C   0  0  0  0  0  0  0  0  0  0  0  0
   -4.0601   -1.5092    8.2422 C   0  0  0  0  0  0  0  0  0  0  0  0
   -5.2285   -0.9169    7.7036 C   0  0  0  0  0  0  0  0  0  0  0  0
   -5.0500    0.4317    7.7008 C   0  0  0  0  0  0  0  0  0  0  0  0
   -3.5318    0.8184    8.3461 S   0  0  0  0  0  0  0  0  0  0  0  0
   -6.0788    1.4173    7.2092 C   0  0  0  0  0  0  0  0  0  0  0  0
   -7.4225    0.7978    7.1516 N   0  0  0  0  0  0  0  0  0  0  0  0
   -7.3570   -0.4980    6.4421 C   0  0  0  0  0  0  0  0  0  0  0  0
   -6.4691   -1.5441    7.1552 C   0  0  0  0  0  0  0  0  0  0  0  0
    2.6166   -1.9849   11.2914 N   0  0  0  0  0  0  0  0  0  0  0  0
    7.2329   -1.4106   10.9733 H   0  0  0  0  0  0  0  0  0  0  0  0
    5.7573   -0.6326   11.6692 H   0  0  0  0  0  0  0  0  0  0  0  0
    7.2966   -0.5576   12.2519 H   0  0  0  0  0  0  0  0  0  0  0  0
    6.3765   -3.4437   14.8213 H   0  0  0  0  0  0  0  0  0  0  0  0
    6.1230   -1.8075   14.8777 H   0  0  0  0  0  0  0  0  0  0  0  0
    4.9130   -2.8383   14.7461 H   0  0  0  0  0  0  0  0  0  0  0  0
    8.6779   -1.0469   14.2087 H   0  0  0  0  0  0  0  0  0  0  0  0
    4.1142   -4.9004   10.9063 H   0  0  0  0  0  0  0  0  0  0  0  0
    2.5497   -3.9690    8.8095 H   0  0  0  0  0  0  0  0  0  0  0  0
   -0.3373   -0.7769   11.0020 H   0  0  0  0  0  0  0  0  0  0  0  0
   -3.8443   -2.5420    8.0173 H   0  0  0  0  0  0  0  0  0  0  0  0
   -5.8460    1.7853    6.2105 H   0  0  0  0  0  0  0  0  0  0  0  0
   -6.1280    2.3067    7.8440 H   0  0  0  0  0  0  0  0  0  0  0  0
   -7.6920    0.6082    8.1210 H   0  0  0  0  0  0  0  0  0  0  0  0
   -6.9870   -0.3283    5.4226 H   0  0  0  0  0  0  0  0  0  0  0  0
   -8.3713   -0.8994    6.3392 H   0  0  0  0  0  0  0  0  0  0  0  0
   -7.0369   -1.9764    7.9859 H   0  0  0  0  0  0  0  0  0  0  0  0
   -6.2173   -2.3544    6.4623 H   0  0  0  0  0  0  0  0  0  0  0  0
  1  2  1  0
  2  3  1  0
  2  4  1  0
  4  5  2  0
  4  6  1  0
  2  7  1  0
  7  8  1  0
  8  9  2  0
  9 10  1  0
 10 11  1  0
 11 12  1  0
 12 13  2  0
 12 14  1  0
 14 15  2  0
 15 16  1  0
 16 17  2  0
 17 18  1  0
 17 19  1  0
 19 20  1  0
 20 21  1  0
 21 22  1  0
 10 23  2  0
 23  7  1  0
 18 14  1  0
 22 16  1  0
  1 24  1  0
  1 25  1  0
  1 26  1  0
  3 27  1  0
  3 28  1  0
  3 29  1  0
  6 30  1  0
  8 31  1  0
  9 32  1  0
 11 33  1  0
 15 34  1  0
 19 35  1  0
 19 36  1  0
 20 37  1  0
 21 38  1  0
 21 39  1  0
 22 40  1  0
 22 41  1  0
M  END
>  <Energy>  (72) 
895.57121604986162

>  <compound_id>  (72) 
50687

>  <target_id>  (72) 
1

>  <reference_id>  (72) 
146

>  <inspiration_ids>  (72) 
[127, 146]

>  <energy_score>  (72) 
823.8320279446289

>  <distance_score>  (72) 
5.369679591170488

>  <path>  (72) 
/opt/xchem-fragalysis-2/maxwin/BulkDock/SCRATCH/511025/C50687-P146/C50687-P146.minimised.mol

>  <scratch_subdir>  (72) 
/opt/xchem-fragalysis-2/maxwin/BulkDock/SCRATCH/511025/C50687-P146

>  <fragmenstein_runtime>  (72) 
71.81374382972717

>  <fragmenstein_outcome>  (72) 
too moved

>  <fragmenstein_mode>  (72) 
expansion

>  <fragmenstein_error>  (72) 


$$$$
C50688-P127
     RDKit          3D

 42 45  0  0  0  0  0  0  0  0999 V2000
    4.1066    1.4329   13.3002 O   0  0  0  0  0  0  0  0  0  0  0  0
    4.6512    0.9827   12.3468 C   0  0  0  0  0  0  0  0  0  0  0  0
    4.4643    1.4112   10.8750 N   0  0  0  0  0  0  0  0  0  0  0  0
    3.6784    2.4328   10.3035 C   0  0  0  0  0  0  0  0  0  0  0  0
    3.0166    3.3457   11.1287 C   0  0  0  0  0  0  0  0  0  0  0  0
    2.1915    4.1304   10.3265 C   0  0  0  0  0  0  0  0  0  0  0  0
    2.2876    3.7721    9.0583 N   0  0  0  0  0  0  0  0  0  0  0  0
    3.2438    2.7940    9.0252 N   0  0  0  0  0  0  0  0  0  0  0  0
    3.3866    2.2214    7.7064 C   0  0  0  0  0  0  0  0  0  0  0  0
    3.0856    3.2116    6.5478 C   0  0  0  0  0  0  0  0  0  0  0  0
    3.4696    2.4470    5.2864 C   0  0  0  0  0  0  0  0  0  0  0  0
    4.4825    1.4073    5.7578 C   0  0  0  0  0  0  0  0  0  0  0  0
    4.7435    1.7388    7.2282 C   0  0  0  0  0  0  0  0  0  0  0  0
    5.8190   -0.6200   12.8376 C   0  0  0  0  0  0  0  0  0  0  0  0
    6.3752   -1.9143   13.8462 C   0  0  0  0  0  0  0  0  0  0  0  0
    7.8132   -1.8793   14.3685 C   0  0  0  0  0  0  0  0  0  0  0  0
    8.3931   -0.7435   13.8169 C   0  0  0  0  0  0  0  0  0  0  0  0
    7.2380   -1.2026   12.1321 S   0  0  0  0  0  0  0  0  0  0  0  0
    9.8955   -0.3150   13.9496 C   0  0  0  0  0  0  0  0  0  0  0  0
   10.5169   -0.9644   15.1317 N   0  0  0  0  0  0  0  0  0  0  0  0
   10.1537   -2.3875   15.1810 C   0  0  0  0  0  0  0  0  0  0  0  0
    8.6178   -2.5844   15.3414 C   0  0  0  0  0  0  0  0  0  0  0  0
    5.1197    0.9063   10.3068 H   0  0  0  0  0  0  0  0  0  0  0  0
    3.0990    3.4010   12.2064 H   0  0  0  0  0  0  0  0  0  0  0  0
    1.5101    4.9211   10.6116 H   0  0  0  0  0  0  0  0  0  0  0  0
    2.6710    1.3978    7.6677 H   0  0  0  0  0  0  0  0  0  0  0  0
    2.0641    3.5956    6.5061 H   0  0  0  0  0  0  0  0  0  0  0  0
    3.7298    4.0981    6.6423 H   0  0  0  0  0  0  0  0  0  0  0  0
    2.6067    1.9584    4.8247 H   0  0  0  0  0  0  0  0  0  0  0  0
    3.9023    3.1213    4.5400 H   0  0  0  0  0  0  0  0  0  0  0  0
    5.4042    1.4341    5.1685 H   0  0  0  0  0  0  0  0  0  0  0  0
    4.0560    0.4013    5.6657 H   0  0  0  0  0  0  0  0  0  0  0  0
    5.4972    2.5320    7.3178 H   0  0  0  0  0  0  0  0  0  0  0  0
    5.1325    0.8793    7.7523 H   0  0  0  0  0  0  0  0  0  0  0  0
    5.7734   -2.5353   14.5156 H   0  0  0  0  0  0  0  0  0  0  0  0
   10.0304    0.7531   14.1218 H   0  0  0  0  0  0  0  0  0  0  0  0
   10.5045   -0.4987   13.0602 H   0  0  0  0  0  0  0  0  0  0  0  0
   11.5274   -0.8790   15.0378 H   0  0  0  0  0  0  0  0  0  0  0  0
   10.5433   -2.9128   14.3025 H   0  0  0  0  0  0  0  0  0  0  0  0
   10.6648   -2.8320   16.0414 H   0  0  0  0  0  0  0  0  0  0  0  0
    8.3633   -3.6354   15.2941 H   0  0  0  0  0  0  0  0  0  0  0  0
    8.3326   -2.1261   16.2855 H   0  0  0  0  0  0  0  0  0  0  0  0
  1  2  2  0
  2  3  1  0
  3  4  1  0
  4  5  2  0
  5  6  1  0
  6  7  2  0
  7  8  1  0
  8  9  1  0
  9 10  1  0
 10 11  1  0
 11 12  1  0
 12 13  1  0
  2 14  1  0
 14 15  2  0
 15 16  1  0
 16 17  2  0
 17 18  1  0
 17 19  1  0
 19 20  1  0
 20 21  1  0
 21 22  1  0
  8  4  1  0
 13  9  1  0
 18 14  1  0
 22 16  1  0
  3 23  1  0
  5 24  1  0
  6 25  1  0
  9 26  1  0
 10 27  1  0
 10 28  1  0
 11 29  1  0
 11 30  1  0
 12 31  1  0
 12 32  1  0
 13 33  1  0
 13 34  1  0
 15 35  1  0
 19 36  1  0
 19 37  1  0
 20 38  1  0
 21 39  1  0
 21 40  1  0
 22 41  1  0
 22 42  1  0
M  END
>  <Energy>  (73) 
364.94866743097657

>  <compound_id>  (73) 
50688

>  <target_id>  (73) 
1

>  <reference_id>  (73) 
127

>  <inspiration_ids>  (73) 
[127, 146]

>  <energy_score>  (73) 
243.14016560037555

>  <distance_score>  (73) 
10.427483613661781

>  <path>  (73) 
/opt/xchem-fragalysis-2/maxwin/BulkDock/SCRATCH/511025/C50688-P127/C50688-P127.minimised.mol

>  <scratch_subdir>  (73) 
/opt/xchem-fragalysis-2/maxwin/BulkDock/SCRATCH/511025/C50688-P127

>  <fragmenstein_runtime>  (73) 
16.47856879234314

>  <fragmenstein_outcome>  (73) 
too moved

>  <fragmenstein_mode>  (73) 
expansion

>  <fragmenstein_error>  (73) 


$$$$
C50688-P146
     RDKit          3D

 42 45  0  0  0  0  0  0  0  0999 V2000
    3.0792   -3.4192   10.0730 O   0  0  0  0  0  0  0  0  0  0  0  0
    2.9997   -2.6676   11.0117 C   0  0  0  0  0  0  0  0  0  0  0  0
    1.3221   -1.5301   10.9793 N   0  0  0  0  0  0  0  0  0  0  0  0
   -0.1505   -1.3093    9.6526 C   0  0  0  0  0  0  0  0  0  0  0  0
   -1.7790   -0.8554    8.7077 C   0  0  0  0  0  0  0  0  0  0  0  0
   -2.7338    0.3082    8.5616 C   0  0  0  0  0  0  0  0  0  0  0  0
   -3.1556   -0.3358    9.5647 N   0  0  0  0  0  0  0  0  0  0  0  0
   -2.0334   -1.6260    9.1704 N   0  0  0  0  0  0  0  0  0  0  0  0
   -3.1637   -2.4442    7.9961 C   0  0  0  0  0  0  0  0  0  0  0  0
   -3.2863   -2.0789    6.4841 C   0  0  0  0  0  0  0  0  0  0  0  0
   -4.6030   -2.6383    5.9637 C   0  0  0  0  0  0  0  0  0  0  0  0
   -5.5953   -2.3745    7.0417 C   0  0  0  0  0  0  0  0  0  0  0  0
   -4.6978   -1.7797    8.1056 C   0  0  0  0  0  0  0  0  0  0  0  0
    4.7154   -2.8396   12.1656 C   0  0  0  0  0  0  0  0  0  0  0  0
    5.7790   -2.8177   13.7481 C   0  0  0  0  0  0  0  0  0  0  0  0
    7.2075   -2.4238   14.1247 C   0  0  0  0  0  0  0  0  0  0  0  0
    7.4620   -1.3674   13.4109 C   0  0  0  0  0  0  0  0  0  0  0  0
    6.5739   -1.4738   12.0104 S   0  0  0  0  0  0  0  0  0  0  0  0
    8.7681   -0.3210   13.8812 C   0  0  0  0  0  0  0  0  0  0  0  0
    9.9741   -0.8966   14.5055 N   0  0  0  0  0  0  0  0  0  0  0  0
    9.7533   -2.2920   14.8010 C   0  0  0  0  0  0  0  0  0  0  0  0
    8.2516   -2.6190   15.1228 C   0  0  0  0  0  0  0  0  0  0  0  0
    1.2872   -0.9876   11.8461 H   0  0  0  0  0  0  0  0  0  0  0  0
   -1.8239   -1.0451    7.5000 H   0  0  0  0  0  0  0  0  0  0  0  0
   -3.3624    0.8890    7.9175 H   0  0  0  0  0  0  0  0  0  0  0  0
   -3.0312   -3.4928    8.2142 H   0  0  0  0  0  0  0  0  0  0  0  0
   -3.3801   -1.0071    6.3335 H   0  0  0  0  0  0  0  0  0  0  0  0
   -2.4694   -2.3429    5.8800 H   0  0  0  0  0  0  0  0  0  0  0  0
   -4.5450   -3.7111    5.8458 H   0  0  0  0  0  0  0  0  0  0  0  0
   -4.9084   -2.1693    5.0254 H   0  0  0  0  0  0  0  0  0  0  0  0
   -6.3684   -1.6642    6.7293 H   0  0  0  0  0  0  0  0  0  0  0  0
   -6.0973   -3.3010    7.3185 H   0  0  0  0  0  0  0  0  0  0  0  0
   -5.1755   -1.7318    9.0484 H   0  0  0  0  0  0  0  0  0  0  0  0
   -4.7099   -0.7178    7.8319 H   0  0  0  0  0  0  0  0  0  0  0  0
    5.2134   -2.8786   14.6892 H   0  0  0  0  0  0  0  0  0  0  0  0
    8.4552    0.2951   14.7291 H   0  0  0  0  0  0  0  0  0  0  0  0
    9.0602    0.3134   13.0406 H   0  0  0  0  0  0  0  0  0  0  0  0
   10.6900   -0.8588   13.7775 H   0  0  0  0  0  0  0  0  0  0  0  0
   10.1895   -2.9006   14.0125 H   0  0  0  0  0  0  0  0  0  0  0  0
   10.4137   -2.5020   15.6470 H   0  0  0  0  0  0  0  0  0  0  0  0
    8.2164   -3.6542   15.3915 H   0  0  0  0  0  0  0  0  0  0  0  0
    8.0022   -1.9147   15.9073 H   0  0  0  0  0  0  0  0  0  0  0  0
  1  2  2  0
  2  3  1  0
  3  4  1  0
  4  5  2  0
  5  6  1  0
  6  7  2  0
  7  8  1  0
  8  9  1  0
  9 10  1  0
 10 11  1  0
 11 12  1  0
 12 13  1  0
  2 14  1  0
 14 15  2  0
 15 16  1  0
 16 17  2  0
 17 18  1  0
 17 19  1  0
 19 20  1  0
 20 21  1  0
 21 22  1  0
  8  4  1  0
 13  9  1  0
 18 14  1  0
 22 16  1  0
  3 23  1  0
  5 24  1  0
  6 25  1  0
  9 26  1  0
 10 27  1  0
 10 28  1  0
 11 29  1  0
 11 30  1  0
 12 31  1  0
 12 32  1  0
 13 33  1  0
 13 34  1  0
 15 35  1  0
 19 36  1  0
 19 37  1  0
 20 38  1  0
 21 39  1  0
 21 40  1  0
 22 41  1  0
 22 42  1  0
M  END
>  <Energy>  (74) 
1530.8879247357434

>  <compound_id>  (74) 
50688

>  <target_id>  (74) 
1

>  <reference_id>  (74) 
146

>  <inspiration_ids>  (74) 
[127, 146]

>  <energy_score>  (74) 
1409.0794229051612

>  <distance_score>  (74) 
7.205177708713173

>  <path>  (74) 
/opt/xchem-fragalysis-2/maxwin/BulkDock/SCRATCH/511025/C50688-P146/C50688-P146.minimised.mol

>  <scratch_subdir>  (74) 
/opt/xchem-fragalysis-2/maxwin/BulkDock/SCRATCH/511025/C50688-P146

>  <fragmenstein_runtime>  (74) 
10.775197505950928

>  <fragmenstein_outcome>  (74) 
too moved

>  <fragmenstein_mode>  (74) 
expansion

>  <fragmenstein_error>  (74) 


$$$$
C50695-P127
     RDKit          3D

 39 41  0  0  0  0  0  0  0  0999 V2000
    8.5621   -1.1021   14.8808 C   0  0  0  0  0  0  0  0  0  0  0  0
    7.9848   -2.3465   14.2094 N   0  0  0  0  0  0  0  0  0  0  0  0
    8.8927   -2.9812   15.1419 C   0  0  0  0  0  0  0  0  0  0  0  0
    6.5401   -2.3049   14.1753 C   0  0  0  0  0  0  0  0  0  0  0  0
    5.7369   -2.7151   14.9643 O   0  0  0  0  0  0  0  0  0  0  0  0
    5.8687   -1.6221   12.6185 C   0  0  0  0  0  0  0  0  0  0  0  0
    4.0850   -1.8566   11.7655 N   0  0  0  0  0  0  0  0  0  0  0  0
    3.6627   -3.1445   11.6653 C   0  0  0  0  0  0  0  0  0  0  0  0
    3.0379   -2.6817   10.5141 C   0  0  0  0  0  0  0  0  0  0  0  0
    1.6934   -1.4510   10.4210 C   0  0  0  0  0  0  0  0  0  0  0  0
   -0.0640   -1.0054   10.3079 N   0  0  0  0  0  0  0  0  0  0  0  0
   -1.3931   -1.2270    8.8718 C   0  0  0  0  0  0  0  0  0  0  0  0
   -1.2026   -1.6530    7.7425 O   0  0  0  0  0  0  0  0  0  0  0  0
   -2.9013   -0.7386    8.9814 C   0  0  0  0  0  0  0  0  0  0  0  0
   -3.8315   -1.6097    8.3086 C   0  0  0  0  0  0  0  0  0  0  0  0
   -5.0654   -1.0723    7.8723 C   0  0  0  0  0  0  0  0  0  0  0  0
   -4.9697    0.2687    7.8117 C   0  0  0  0  0  0  0  0  0  0  0  0
   -3.4222    0.8024    8.0850 S   0  0  0  0  0  0  0  0  0  0  0  0
   -6.1333    0.8877    7.1575 C   0  0  0  0  0  0  0  0  0  0  0  0
   -7.0838   -0.2565    7.0142 N   0  0  0  0  0  0  0  0  0  0  0  0
   -6.2984   -1.5240    7.1887 C   0  0  0  0  0  0  0  0  0  0  0  0
    2.4843   -0.8806   11.6196 N   0  0  0  0  0  0  0  0  0  0  0  0
    8.0509   -0.7834   15.8030 H   0  0  0  0  0  0  0  0  0  0  0  0
    9.6620   -1.0562   15.0532 H   0  0  0  0  0  0  0  0  0  0  0  0
    8.5696   -0.4018   14.0631 H   0  0  0  0  0  0  0  0  0  0  0  0
    9.9097   -3.0767   14.7301 H   0  0  0  0  0  0  0  0  0  0  0  0
    8.5133   -3.9805   15.2790 H   0  0  0  0  0  0  0  0  0  0  0  0
    8.9464   -2.5020   16.1241 H   0  0  0  0  0  0  0  0  0  0  0  0
    6.6119   -1.2064   11.9334 H   0  0  0  0  0  0  0  0  0  0  0  0
    5.8953   -2.6836   12.3724 H   0  0  0  0  0  0  0  0  0  0  0  0
    4.2797   -3.9984   11.8699 H   0  0  0  0  0  0  0  0  0  0  0  0
    3.3604   -3.2204    9.5876 H   0  0  0  0  0  0  0  0  0  0  0  0
   -0.5176   -0.7089   11.1784 H   0  0  0  0  0  0  0  0  0  0  0  0
   -3.5103   -2.6113    8.0365 H   0  0  0  0  0  0  0  0  0  0  0  0
   -5.8790    1.2739    6.1652 H   0  0  0  0  0  0  0  0  0  0  0  0
   -6.5866    1.6860    7.7510 H   0  0  0  0  0  0  0  0  0  0  0  0
   -7.7204   -0.2078    7.8116 H   0  0  0  0  0  0  0  0  0  0  0  0
   -6.0691   -1.9485    6.2057 H   0  0  0  0  0  0  0  0  0  0  0  0
   -6.8856   -2.2416    7.7617 H   0  0  0  0  0  0  0  0  0  0  0  0
  1  2  1  0
  2  3  1  0
  2  4  1  0
  4  5  2  0
  4  6  1  0
  6  7  1  0
  7  8  1  0
  8  9  2  0
  9 10  1  0
 10 11  1  0
 11 12  1  0
 12 13  2  0
 12 14  1  0
 14 15  2  0
 15 16  1  0
 16 17  2  0
 17 18  1  0
 17 19  1  0
 19 20  1  0
 20 21  1  0
 10 22  2  0
 22  7  1  0
 18 14  1  0
 21 16  1  0
  1 23  1  0
  1 24  1  0
  1 25  1  0
  3 26  1  0
  3 27  1  0
  3 28  1  0
  6 29  1  0
  6 30  1  0
  8 31  1  0
  9 32  1  0
 11 33  1  0
 15 34  1  0
 19 35  1  0
 19 36  1  0
 20 37  1  0
 21 38  1  0
 21 39  1  0
M  END
>  <Energy>  (75) 
685.14371013333368

>  <compound_id>  (75) 
50695

>  <target_id>  (75) 
1

>  <reference_id>  (75) 
127

>  <inspiration_ids>  (75) 
[127, 146]

>  <energy_score>  (75) 
619.4386332777483

>  <distance_score>  (75) 
4.7920848781749665

>  <path>  (75) 
/opt/xchem-fragalysis-2/maxwin/BulkDock/SCRATCH/511025/C50695-P127/C50695-P127.minimised.mol

>  <scratch_subdir>  (75) 
/opt/xchem-fragalysis-2/maxwin/BulkDock/SCRATCH/511025/C50695-P127

>  <fragmenstein_runtime>  (75) 
63.09426808357239

>  <fragmenstein_outcome>  (75) 
too moved

>  <fragmenstein_mode>  (75) 
expansion

>  <fragmenstein_error>  (75) 


$$$$
C50695-P146
     RDKit          3D

 39 41  0  0  0  0  0  0  0  0999 V2000
    7.8843   -1.2518   13.9079 C   0  0  0  0  0  0  0  0  0  0  0  0
    7.5082   -2.6057   13.9742 N   0  0  0  0  0  0  0  0  0  0  0  0
    8.5111   -2.6023   15.0086 C   0  0  0  0  0  0  0  0  0  0  0  0
    6.0502   -2.7320   14.0510 C   0  0  0  0  0  0  0  0  0  0  0  0
    5.3288   -2.7735   15.0091 O   0  0  0  0  0  0  0  0  0  0  0  0
    5.1063   -3.0358   12.3146 C   0  0  0  0  0  0  0  0  0  0  0  0
    3.6595   -2.7333   11.3432 N   0  0  0  0  0  0  0  0  0  0  0  0
    3.4837   -3.7137   10.1163 C   0  0  0  0  0  0  0  0  0  0  0  0
    2.5124   -3.2604   10.8331 C   0  0  0  0  0  0  0  0  0  0  0  0
    1.4163   -1.9997   10.2395 C   0  0  0  0  0  0  0  0  0  0  0  0
   -0.2475   -1.3553   10.3036 N   0  0  0  0  0  0  0  0  0  0  0  0
   -1.7626   -1.5200    9.0329 C   0  0  0  0  0  0  0  0  0  0  0  0
   -1.6740   -2.2246    8.0472 O   0  0  0  0  0  0  0  0  0  0  0  0
   -3.1733   -0.7371    8.9756 C   0  0  0  0  0  0  0  0  0  0  0  0
   -4.1457   -1.5320    8.2411 C   0  0  0  0  0  0  0  0  0  0  0  0
   -5.2592   -0.9006    7.6736 C   0  0  0  0  0  0  0  0  0  0  0  0
   -5.0480    0.4239    7.7000 C   0  0  0  0  0  0  0  0  0  0  0  0
   -3.5712    0.8164    8.3537 S   0  0  0  0  0  0  0  0  0  0  0  0
   -6.1540    1.1679    7.0762 C   0  0  0  0  0  0  0  0  0  0  0  0
   -6.9046    0.0927    6.3589 N   0  0  0  0  0  0  0  0  0  0  0  0
   -6.4835   -1.2332    6.9297 C   0  0  0  0  0  0  0  0  0  0  0  0
    2.2600   -1.5910   11.3198 N   0  0  0  0  0  0  0  0  0  0  0  0
    8.9081   -0.8180   13.9494 H   0  0  0  0  0  0  0  0  0  0  0  0
    7.3855   -0.8944   12.9932 H   0  0  0  0  0  0  0  0  0  0  0  0
    7.5225   -0.8795   14.8942 H   0  0  0  0  0  0  0  0  0  0  0  0
    8.4485   -3.6428   15.2926 H   0  0  0  0  0  0  0  0  0  0  0  0
    8.3391   -1.9844   15.8904 H   0  0  0  0  0  0  0  0  0  0  0  0
    9.5577   -2.5233   14.6596 H   0  0  0  0  0  0  0  0  0  0  0  0
    4.8379   -4.0844   12.1912 H   0  0  0  0  0  0  0  0  0  0  0  0
    5.9201   -2.8197   11.6518 H   0  0  0  0  0  0  0  0  0  0  0  0
    4.1084   -4.5784   10.2356 H   0  0  0  0  0  0  0  0  0  0  0  0
    2.3033   -4.1213   11.5631 H   0  0  0  0  0  0  0  0  0  0  0  0
   -0.5364   -0.8060   11.1031 H   0  0  0  0  0  0  0  0  0  0  0  0
   -3.9193   -2.5533    7.9766 H   0  0  0  0  0  0  0  0  0  0  0  0
   -5.8385    1.9420    6.3757 H   0  0  0  0  0  0  0  0  0  0  0  0
   -6.8143    1.6353    7.8110 H   0  0  0  0  0  0  0  0  0  0  0  0
   -7.8988    0.2085    6.5478 H   0  0  0  0  0  0  0  0  0  0  0  0
   -6.3041   -1.9455    6.1201 H   0  0  0  0  0  0  0  0  0  0  0  0
   -7.2583   -1.6184    7.6005 H   0  0  0  0  0  0  0  0  0  0  0  0
  1  2  1  0
  2  3  1  0
  2  4  1  0
  4  5  2  0
  4  6  1  0
  6  7  1  0
  7  8  1  0
  8  9  2  0
  9 10  1  0
 10 11  1  0
 11 12  1  0
 12 13  2  0
 12 14  1  0
 14 15  2  0
 15 16  1  0
 16 17  2  0
 17 18  1  0
 17 19  1  0
 19 20  1  0
 20 21  1  0
 10 22  2  0
 22  7  1  0
 18 14  1  0
 21 16  1  0
  1 23  1  0
  1 24  1  0
  1 25  1  0
  3 26  1  0
  3 27  1  0
  3 28  1  0
  6 29  1  0
  6 30  1  0
  8 31  1  0
  9 32  1  0
 11 33  1  0
 15 34  1  0
 19 35  1  0
 19 36  1  0
 20 37  1  0
 21 38  1  0
 21 39  1  0
M  END
>  <Energy>  (76) 
748.99361839419259

>  <compound_id>  (76) 
50695

>  <target_id>  (76) 
1

>  <reference_id>  (76) 
146

>  <inspiration_ids>  (76) 
[127, 146]

>  <energy_score>  (76) 
683.2885415386017

>  <distance_score>  (76) 
5.286631843639812

>  <path>  (76) 
/opt/xchem-fragalysis-2/maxwin/BulkDock/SCRATCH/511025/C50695-P146/C50695-P146.minimised.mol

>  <scratch_subdir>  (76) 
/opt/xchem-fragalysis-2/maxwin/BulkDock/SCRATCH/511025/C50695-P146

>  <fragmenstein_runtime>  (76) 
63.094380617141724

>  <fragmenstein_outcome>  (76) 
too moved

>  <fragmenstein_mode>  (76) 
expansion

>  <fragmenstein_error>  (76) 


$$$$
C50697-P127
     RDKit          3D

 38 40  0  0  0  0  0  0  0  0999 V2000
    0.8237   -1.1913   10.1921 O   0  0  0  0  0  0  0  0  0  0  0  0
    0.5687   -1.8848    9.2671 C   0  0  0  0  0  0  0  0  0  0  0  0
    1.4885   -3.0672    8.6648 N   0  0  0  0  0  0  0  0  0  0  0  0
    2.8144   -3.6641    9.1537 C   0  0  0  0  0  0  0  0  0  0  0  0
    2.9827   -5.0847    9.7951 C   0  0  0  0  0  0  0  0  0  0  0  0
    3.3026   -5.1240   11.2391 N   0  0  0  0  0  0  0  0  0  0  0  0
    3.6505   -4.1250   12.1141 C   0  0  0  0  0  0  0  0  0  0  0  0
    3.4888   -4.6275   13.3780 C   0  0  0  0  0  0  0  0  0  0  0  0
    3.5675   -3.8075   14.8548 Cl  0  0  0  0  0  0  0  0  0  0  0  0
    3.2317   -5.9893   13.1759 C   0  0  0  0  0  0  0  0  0  0  0  0
    3.1680   -6.3109   11.8785 N   0  0  0  0  0  0  0  0  0  0  0  0
   -1.4046   -1.5335    8.5287 C   0  0  0  0  0  0  0  0  0  0  0  0
   -2.2847   -0.3835    8.5416 C   0  0  0  0  0  0  0  0  0  0  0  0
   -3.2758    0.2893    7.7040 C   0  0  0  0  0  0  0  0  0  0  0  0
   -4.0173   -0.4581    6.8686 C   0  0  0  0  0  0  0  0  0  0  0  0
   -3.7287   -1.7864    6.9997 C   0  0  0  0  0  0  0  0  0  0  0  0
   -2.5105   -2.2479    7.7818 C   0  0  0  0  0  0  0  0  0  0  0  0
   -4.6366   -2.7752    6.3068 C   0  0  0  0  0  0  0  0  0  0  0  0
   -5.9505   -2.2462    5.9340 N   0  0  0  0  0  0  0  0  0  0  0  0
   -5.8066   -0.9923    5.2003 C   0  0  0  0  0  0  0  0  0  0  0  0
   -5.1912    0.0725    6.1108 C   0  0  0  0  0  0  0  0  0  0  0  0
    1.0710   -3.4152    7.8587 H   0  0  0  0  0  0  0  0  0  0  0  0
    3.3816   -3.7547    8.2458 H   0  0  0  0  0  0  0  0  0  0  0  0
    3.1718   -3.0307    9.9362 H   0  0  0  0  0  0  0  0  0  0  0  0
    3.8456   -5.5791    9.3305 H   0  0  0  0  0  0  0  0  0  0  0  0
    2.1013   -5.7138    9.6275 H   0  0  0  0  0  0  0  0  0  0  0  0
    3.8495   -3.1109   11.8180 H   0  0  0  0  0  0  0  0  0  0  0  0
    3.0776   -6.7635   13.9155 H   0  0  0  0  0  0  0  0  0  0  0  0
   -2.8598   -0.3509    9.4850 H   0  0  0  0  0  0  0  0  0  0  0  0
   -3.5918    1.2975    7.9671 H   0  0  0  0  0  0  0  0  0  0  0  0
   -2.6010   -3.3285    7.7060 H   0  0  0  0  0  0  0  0  0  0  0  0
   -4.1329   -3.1544    5.4126 H   0  0  0  0  0  0  0  0  0  0  0  0
   -4.8170   -3.5853    7.0031 H   0  0  0  0  0  0  0  0  0  0  0  0
   -6.4527   -2.9349    5.3755 H   0  0  0  0  0  0  0  0  0  0  0  0
   -6.7885   -0.6505    4.8554 H   0  0  0  0  0  0  0  0  0  0  0  0
   -5.1875   -1.1440    4.3069 H   0  0  0  0  0  0  0  0  0  0  0  0
   -5.9470    0.4099    6.8319 H   0  0  0  0  0  0  0  0  0  0  0  0
   -4.8911    0.9372    5.5087 H   0  0  0  0  0  0  0  0  0  0  0  0
  1  2  2  0
  2  3  1  0
  3  4  1  0
  4  5  1  0
  5  6  1  0
  6  7  1  0
  7  8  2  0
  8  9  1  0
  8 10  1  0
 10 11  2  0
  2 12  1  0
 12 13  2  0
 13 14  1  0
 14 15  2  0
 15 16  1  0
 16 17  2  0
 16 18  1  0
 18 19  1  0
 19 20  1  0
 20 21  1  0
 11  6  1  0
 17 12  1  0
 21 15  1  0
  3 22  1  0
  4 23  1  0
  4 24  1  0
  5 25  1  0
  5 26  1  0
  7 27  1  0
 10 28  1  0
 13 29  1  0
 14 30  1  0
 17 31  1  0
 18 32  1  0
 18 33  1  0
 19 34  1  0
 20 35  1  0
 20 36  1  0
 21 37  1  0
 21 38  1  0
M  END
>  <Energy>  (77) 
324.63045415683388

>  <compound_id>  (77) 
50697

>  <target_id>  (77) 
1

>  <reference_id>  (77) 
127

>  <inspiration_ids>  (77) 
[127, 146]

>  <energy_score>  (77) 
261.16089207849654

>  <distance_score>  (77) 
10.95380020697701

>  <path>  (77) 
/opt/xchem-fragalysis-2/maxwin/BulkDock/SCRATCH/511025/C50697-P127/C50697-P127.minimised.mol

>  <scratch_subdir>  (77) 
/opt/xchem-fragalysis-2/maxwin/BulkDock/SCRATCH/511025/C50697-P127

>  <fragmenstein_runtime>  (77) 
11.457722187042236

>  <fragmenstein_outcome>  (77) 
too moved

>  <fragmenstein_mode>  (77) 
expansion

>  <fragmenstein_error>  (77) 


$$$$
C50697-P146
     RDKit          3D

 38 40  0  0  0  0  0  0  0  0999 V2000
    0.6711   -1.6223    9.9100 O   0  0  0  0  0  0  0  0  0  0  0  0
   -0.4204   -1.3071   10.3838 C   0  0  0  0  0  0  0  0  0  0  0  0
   -0.7879   -0.8388   11.9300 N   0  0  0  0  0  0  0  0  0  0  0  0
    0.1723   -0.7664   13.3085 C   0  0  0  0  0  0  0  0  0  0  0  0
    1.2405    0.3596   13.9141 C   0  0  0  0  0  0  0  0  0  0  0  0
    2.6840    0.0604   14.1306 N   0  0  0  0  0  0  0  0  0  0  0  0
    3.4080   -1.0957   13.9676 C   0  0  0  0  0  0  0  0  0  0  0  0
    4.6545   -0.8706   14.5107 C   0  0  0  0  0  0  0  0  0  0  0  0
    5.9464   -1.9349   14.6979 Cl  0  0  0  0  0  0  0  0  0  0  0  0
    4.6169    0.4519   14.9608 C   0  0  0  0  0  0  0  0  0  0  0  0
    3.4362    1.0338   14.7277 N   0  0  0  0  0  0  0  0  0  0  0  0
   -2.0179   -1.2662    9.0493 C   0  0  0  0  0  0  0  0  0  0  0  0
   -2.9110   -0.1246    8.7129 C   0  0  0  0  0  0  0  0  0  0  0  0
   -4.1306    0.0712    7.9778 C   0  0  0  0  0  0  0  0  0  0  0  0
   -4.7293   -0.9494    7.3470 C   0  0  0  0  0  0  0  0  0  0  0  0
   -3.9954   -2.1025    7.4012 C   0  0  0  0  0  0  0  0  0  0  0  0
   -2.7539   -2.2311    8.2464 C   0  0  0  0  0  0  0  0  0  0  0  0
   -4.5874   -3.2928    6.6973 C   0  0  0  0  0  0  0  0  0  0  0  0
   -5.5291   -2.9683    5.6238 N   0  0  0  0  0  0  0  0  0  0  0  0
   -6.5992   -2.1285    6.1592 C   0  0  0  0  0  0  0  0  0  0  0  0
   -6.0287   -0.7901    6.6198 C   0  0  0  0  0  0  0  0  0  0  0  0
   -1.7936   -0.7285   12.0178 H   0  0  0  0  0  0  0  0  0  0  0  0
    0.9720   -0.9814   12.6247 H   0  0  0  0  0  0  0  0  0  0  0  0
   -0.6542   -0.2256   13.7527 H   0  0  0  0  0  0  0  0  0  0  0  0
    1.2186    1.3121   13.3792 H   0  0  0  0  0  0  0  0  0  0  0  0
    0.8937    0.5591   14.9395 H   0  0  0  0  0  0  0  0  0  0  0  0
    2.9837   -1.9796   13.5210 H   0  0  0  0  0  0  0  0  0  0  0  0
    5.3861    1.0171   15.4679 H   0  0  0  0  0  0  0  0  0  0  0  0
   -2.6845    0.8940    8.9086 H   0  0  0  0  0  0  0  0  0  0  0  0
   -4.5455    1.0755    7.9114 H   0  0  0  0  0  0  0  0  0  0  0  0
   -2.5788   -3.2765    8.2934 H   0  0  0  0  0  0  0  0  0  0  0  0
   -3.7679   -3.8912    6.3271 H   0  0  0  0  0  0  0  0  0  0  0  0
   -5.1359   -3.9137    7.3896 H   0  0  0  0  0  0  0  0  0  0  0  0
   -5.0354   -2.4627    4.8946 H   0  0  0  0  0  0  0  0  0  0  0  0
   -7.1044   -2.6417    6.9874 H   0  0  0  0  0  0  0  0  0  0  0  0
   -7.3592   -1.9616    5.3882 H   0  0  0  0  0  0  0  0  0  0  0  0
   -6.7619   -0.2907    7.2637 H   0  0  0  0  0  0  0  0  0  0  0  0
   -5.8671   -0.1525    5.7433 H   0  0  0  0  0  0  0  0  0  0  0  0
  1  2  2  0
  2  3  1  0
  3  4  1  0
  4  5  1  0
  5  6  1  0
  6  7  1  0
  7  8  2  0
  8  9  1  0
  8 10  1  0
 10 11  2  0
  2 12  1  0
 12 13  2  0
 13 14  1  0
 14 15  2  0
 15 16  1  0
 16 17  2  0
 16 18  1  0
 18 19  1  0
 19 20  1  0
 20 21  1  0
 11  6  1  0
 17 12  1  0
 21 15  1  0
  3 22  1  0
  4 23  1  0
  4 24  1  0
  5 25  1  0
  5 26  1  0
  7 27  1  0
 10 28  1  0
 13 29  1  0
 14 30  1  0
 17 31  1  0
 18 32  1  0
 18 33  1  0
 19 34  1  0
 20 35  1  0
 20 36  1  0
 21 37  1  0
 21 38  1  0
M  END
>  <Energy>  (78) 
304.28796066036796

>  <compound_id>  (78) 
50697

>  <target_id>  (78) 
1

>  <reference_id>  (78) 
146

>  <inspiration_ids>  (78) 
[127, 146]

>  <energy_score>  (78) 
240.81839858203028

>  <distance_score>  (78) 
10.071185939806027

>  <path>  (78) 
/opt/xchem-fragalysis-2/maxwin/BulkDock/SCRATCH/511025/C50697-P146/C50697-P146.minimised.mol

>  <scratch_subdir>  (78) 
/opt/xchem-fragalysis-2/maxwin/BulkDock/SCRATCH/511025/C50697-P146

>  <fragmenstein_runtime>  (78) 
12.318058967590332

>  <fragmenstein_outcome>  (78) 
too moved

>  <fragmenstein_mode>  (78) 
expansion

>  <fragmenstein_error>  (78) 


$$$$
C50700-P127
     RDKit          3D

 35 37  0  0  0  0  0  0  0  0999 V2000
   -1.3309   -3.7399   13.1292 O   0  0  0  0  0  0  0  0  0  0  0  0
   -0.8985   -2.5800   13.2737 C   0  0  0  0  0  0  0  0  0  0  0  0
   -2.1964   -0.9474   12.8518 C   0  0  0  0  0  0  0  0  0  0  0  0
   -3.8746   -0.4106   11.8431 N   0  0  0  0  0  0  0  0  0  0  0  0
   -4.2915   -0.4898   10.0484 C   0  0  0  0  0  0  0  0  0  0  0  0
   -5.7668   -0.4043    9.7913 C   0  0  0  0  0  0  0  0  0  0  0  0
   -6.7074   -0.3669    8.3873 Cl  0  0  0  0  0  0  0  0  0  0  0  0
   -6.3191   -0.3670   11.5840 C   0  0  0  0  0  0  0  0  0  0  0  0
   -5.2799   -0.1716   12.5270 N   0  0  0  0  0  0  0  0  0  0  0  0
    0.9620   -2.0823   13.7059 N   0  0  0  0  0  0  0  0  0  0  0  0
    2.6533   -3.2525   13.8463 C   0  0  0  0  0  0  0  0  0  0  0  0
    4.6493   -3.0370   14.4593 C   0  0  0  0  0  0  0  0  0  0  0  0
    5.3805   -3.4958   15.4064 C   0  0  0  0  0  0  0  0  0  0  0  0
    7.1151   -3.3897   15.5778 C   0  0  0  0  0  0  0  0  0  0  0  0
    8.0995   -2.5345   15.3397 C   0  0  0  0  0  0  0  0  0  0  0  0
    7.6775   -1.9672   14.2751 C   0  0  0  0  0  0  0  0  0  0  0  0
    6.1862   -2.2920   13.8017 C   0  0  0  0  0  0  0  0  0  0  0  0
    8.8536   -0.8321   14.2030 C   0  0  0  0  0  0  0  0  0  0  0  0
    9.2611   -0.6166   15.5821 N   0  0  0  0  0  0  0  0  0  0  0  0
    9.4018   -2.0526   15.8345 C   0  0  0  0  0  0  0  0  0  0  0  0
   -2.5304   -1.9058   12.9406 H   0  0  0  0  0  0  0  0  0  0  0  0
   -1.4679   -0.3346   12.2595 H   0  0  0  0  0  0  0  0  0  0  0  0
   -3.4190   -0.6800    9.4220 H   0  0  0  0  0  0  0  0  0  0  0  0
   -7.3407   -0.1662   11.8097 H   0  0  0  0  0  0  0  0  0  0  0  0
    1.0636   -1.0674   13.6843 H   0  0  0  0  0  0  0  0  0  0  0  0
    2.2989   -4.1956   14.3000 H   0  0  0  0  0  0  0  0  0  0  0  0
    2.9041   -3.5928   12.8299 H   0  0  0  0  0  0  0  0  0  0  0  0
    4.7332   -4.0441   16.1225 H   0  0  0  0  0  0  0  0  0  0  0  0
    7.6314   -4.2474   15.9958 H   0  0  0  0  0  0  0  0  0  0  0  0
    6.1265   -1.7541   12.8325 H   0  0  0  0  0  0  0  0  0  0  0  0
    9.8887   -1.1155   13.9095 H   0  0  0  0  0  0  0  0  0  0  0  0
    8.7227   -0.1170   13.4235 H   0  0  0  0  0  0  0  0  0  0  0  0
   10.1736   -0.1627   15.5934 H   0  0  0  0  0  0  0  0  0  0  0  0
   10.2476   -2.5385   15.3261 H   0  0  0  0  0  0  0  0  0  0  0  0
    9.6019   -2.0998   16.8722 H   0  0  0  0  0  0  0  0  0  0  0  0
  1  2  2  0
  2  3  1  0
  3  4  1  0
  4  5  1  0
  5  6  2  0
  6  7  1  0
  6  8  1  0
  8  9  2  0
  2 10  1  0
 10 11  1  0
 11 12  1  0
 12 13  2  0
 13 14  1  0
 14 15  2  0
 15 16  1  0
 16 17  2  0
 16 18  1  0
 18 19  1  0
 19 20  1  0
  9  4  1  0
 17 12  1  0
 20 15  1  0
  3 21  1  0
  3 22  1  0
  5 23  1  0
  8 24  1  0
 10 25  1  0
 11 26  1  0
 11 27  1  0
 13 28  1  0
 14 29  1  0
 17 30  1  0
 18 31  1  0
 18 32  1  0
 19 33  1  0
 20 34  1  0
 20 35  1  0
M  END
>  <Energy>  (79) 
1010.0414752086236

>  <compound_id>  (79) 
50700

>  <target_id>  (79) 
1

>  <reference_id>  (79) 
127

>  <inspiration_ids>  (79) 
[127, 146]

>  <energy_score>  (79) 
953.0576164855066

>  <distance_score>  (79) 
8.352545031335563

>  <path>  (79) 
/opt/xchem-fragalysis-2/maxwin/BulkDock/SCRATCH/511025/C50700-P127/C50700-P127.minimised.mol

>  <scratch_subdir>  (79) 
/opt/xchem-fragalysis-2/maxwin/BulkDock/SCRATCH/511025/C50700-P127

>  <fragmenstein_runtime>  (79) 
9.819498062133789

>  <fragmenstein_outcome>  (79) 
too moved

>  <fragmenstein_mode>  (79) 
expansion

>  <fragmenstein_error>  (79) 


$$$$
C50700-P146
     RDKit          3D

 35 37  0  0  0  0  0  0  0  0999 V2000
    1.4813    1.7873   18.0507 O   0  0  0  0  0  0  0  0  0  0  0  0
    1.3730    1.0720   17.0979 C   0  0  0  0  0  0  0  0  0  0  0  0
    0.8829    1.6922   15.7636 C   0  0  0  0  0  0  0  0  0  0  0  0
   -0.3810    2.3845   15.4675 N   0  0  0  0  0  0  0  0  0  0  0  0
   -1.4806    2.7128   16.2122 C   0  0  0  0  0  0  0  0  0  0  0  0
   -2.4573    3.0940   15.3094 C   0  0  0  0  0  0  0  0  0  0  0  0
   -4.1225    3.3551   15.5146 Cl  0  0  0  0  0  0  0  0  0  0  0  0
   -1.7775    3.2277   14.0979 C   0  0  0  0  0  0  0  0  0  0  0  0
   -0.5301    2.7720   14.1646 N   0  0  0  0  0  0  0  0  0  0  0  0
    1.7329   -0.3587   16.9158 N   0  0  0  0  0  0  0  0  0  0  0  0
    2.5396   -1.4681   17.9618 C   0  0  0  0  0  0  0  0  0  0  0  0
    4.4432   -1.9394   17.8055 C   0  0  0  0  0  0  0  0  0  0  0  0
    5.9502   -1.3852   18.7729 C   0  0  0  0  0  0  0  0  0  0  0  0
    7.1365   -0.2183   18.8288 C   0  0  0  0  0  0  0  0  0  0  0  0
    7.5016    0.2089   17.5841 C   0  0  0  0  0  0  0  0  0  0  0  0
    6.7195   -0.5455   16.6791 C   0  0  0  0  0  0  0  0  0  0  0  0
    5.0426   -1.3684   16.8866 C   0  0  0  0  0  0  0  0  0  0  0  0
    7.8148   -1.0141   15.6157 C   0  0  0  0  0  0  0  0  0  0  0  0
    8.9814   -0.1262   15.8061 N   0  0  0  0  0  0  0  0  0  0  0  0
    8.6760    0.8002   16.9228 C   0  0  0  0  0  0  0  0  0  0  0  0
    0.9996    0.9726   14.9543 H   0  0  0  0  0  0  0  0  0  0  0  0
    1.6433    2.4598   15.5482 H   0  0  0  0  0  0  0  0  0  0  0  0
   -1.5076    2.5329   17.2762 H   0  0  0  0  0  0  0  0  0  0  0  0
   -2.1290    3.6193   13.1607 H   0  0  0  0  0  0  0  0  0  0  0  0
    1.4273   -0.6613   16.0140 H   0  0  0  0  0  0  0  0  0  0  0  0
    2.1066   -2.4126   17.5800 H   0  0  0  0  0  0  0  0  0  0  0  0
    1.9829   -1.2734   18.8797 H   0  0  0  0  0  0  0  0  0  0  0  0
    5.9060   -1.8438   19.8085 H   0  0  0  0  0  0  0  0  0  0  0  0
    7.6700   -0.0409   19.7521 H   0  0  0  0  0  0  0  0  0  0  0  0
    4.7985   -2.0654   15.9973 H   0  0  0  0  0  0  0  0  0  0  0  0
    8.1882   -1.9952   15.8644 H   0  0  0  0  0  0  0  0  0  0  0  0
    7.5009   -1.2620   14.6034 H   0  0  0  0  0  0  0  0  0  0  0  0
    9.1428    0.4158   14.9559 H   0  0  0  0  0  0  0  0  0  0  0  0
    9.5245    0.9053   17.5957 H   0  0  0  0  0  0  0  0  0  0  0  0
    8.4179    1.7894   16.5287 H   0  0  0  0  0  0  0  0  0  0  0  0
  1  2  2  0
  2  3  1  0
  3  4  1  0
  4  5  1  0
  5  6  2  0
  6  7  1  0
  6  8  1  0
  8  9  2  0
  2 10  1  0
 10 11  1  0
 11 12  1  0
 12 13  2  0
 13 14  1  0
 14 15  2  0
 15 16  1  0
 16 17  2  0
 16 18  1  0
 18 19  1  0
 19 20  1  0
  9  4  1  0
 17 12  1  0
 20 15  1  0
  3 21  1  0
  3 22  1  0
  5 23  1  0
  8 24  1  0
 10 25  1  0
 11 26  1  0
 11 27  1  0
 13 28  1  0
 14 29  1  0
 17 30  1  0
 18 31  1  0
 18 32  1  0
 19 33  1  0
 20 34  1  0
 20 35  1  0
M  END
>  <Energy>  (80) 
400.51749321027887

>  <compound_id>  (80) 
50700

>  <target_id>  (80) 
1

>  <reference_id>  (80) 
146

>  <inspiration_ids>  (80) 
[127, 146]

>  <energy_score>  (80) 
343.53363448715254

>  <distance_score>  (80) 
10.872640246578651

>  <path>  (80) 
/opt/xchem-fragalysis-2/maxwin/BulkDock/SCRATCH/511025/C50700-P146/C50700-P146.minimised.mol

>  <scratch_subdir>  (80) 
/opt/xchem-fragalysis-2/maxwin/BulkDock/SCRATCH/511025/C50700-P146

>  <fragmenstein_runtime>  (80) 
10.878418445587158

>  <fragmenstein_outcome>  (80) 
too moved

>  <fragmenstein_mode>  (80) 
expansion

>  <fragmenstein_error>  (80) 


$$$$
C50702-P127
     RDKit          3D

 43 46  0  0  0  0  0  0  0  0999 V2000
    1.6030   -1.7728    9.1256 O   0  0  0  0  0  0  0  0  0  0  0  0
    1.3560   -1.4743   10.1798 C   0  0  0  0  0  0  0  0  0  0  0  0
   -0.3143   -1.0173   10.3488 N   0  0  0  0  0  0  0  0  0  0  0  0
   -1.8177   -1.0746    9.1179 C   0  0  0  0  0  0  0  0  0  0  0  0
   -3.1399   -0.4249    9.1916 C   0  0  0  0  0  0  0  0  0  0  0  0
   -3.2597    0.3827    8.0492 C   0  0  0  0  0  0  0  0  0  0  0  0
   -2.5892   -0.2165    7.0869 N   0  0  0  0  0  0  0  0  0  0  0  0
   -2.3819   -1.4609    7.6244 N   0  0  0  0  0  0  0  0  0  0  0  0
   -3.6977   -2.2940    7.2933 C   0  0  0  0  0  0  0  0  0  0  0  0
   -5.1285   -1.6929    7.6632 C   0  0  0  0  0  0  0  0  0  0  0  0
   -5.8002   -0.7516    6.6475 C   0  0  0  0  0  0  0  0  0  0  0  0
   -5.0599   -0.5532    5.3380 C   0  0  0  0  0  0  0  0  0  0  0  0
   -4.3318   -1.6730    4.8758 O   0  0  0  0  0  0  0  0  0  0  0  0
   -4.1064   -2.7069    5.8223 C   0  0  0  0  0  0  0  0  0  0  0  0
    2.9142   -1.8011   11.3584 C   0  0  0  0  0  0  0  0  0  0  0  0
    4.5219   -0.9317   11.6457 C   0  0  0  0  0  0  0  0  0  0  0  0
    5.9519   -1.5477   12.5468 C   0  0  0  0  0  0  0  0  0  0  0  0
    5.5736   -2.8465   12.8445 C   0  0  0  0  0  0  0  0  0  0  0  0
    3.9077   -3.5502   12.0060 S   0  0  0  0  0  0  0  0  0  0  0  0
    5.9302   -2.9616   14.5765 C   0  0  0  0  0  0  0  0  0  0  0  0
    6.8744   -1.9846   15.1171 N   0  0  0  0  0  0  0  0  0  0  0  0
    7.9161   -1.9335   14.1897 C   0  0  0  0  0  0  0  0  0  0  0  0
    7.2929   -1.2615   12.8560 C   0  0  0  0  0  0  0  0  0  0  0  0
   -0.4835   -0.8439   11.3325 H   0  0  0  0  0  0  0  0  0  0  0  0
   -3.7950   -0.2698   10.0170 H   0  0  0  0  0  0  0  0  0  0  0  0
   -3.8464    1.2690    7.8510 H   0  0  0  0  0  0  0  0  0  0  0  0
   -3.4785   -3.2230    7.8181 H   0  0  0  0  0  0  0  0  0  0  0  0
   -5.2358   -1.2726    8.6577 H   0  0  0  0  0  0  0  0  0  0  0  0
   -5.8083   -2.5538    7.6798 H   0  0  0  0  0  0  0  0  0  0  0  0
   -6.0050    0.2238    7.1046 H   0  0  0  0  0  0  0  0  0  0  0  0
   -6.7920   -1.1656    6.4180 H   0  0  0  0  0  0  0  0  0  0  0  0
   -5.7750   -0.2790    4.5539 H   0  0  0  0  0  0  0  0  0  0  0  0
   -4.3747    0.2960    5.3980 H   0  0  0  0  0  0  0  0  0  0  0  0
   -5.0654   -3.2444    5.8730 H   0  0  0  0  0  0  0  0  0  0  0  0
   -3.5017   -3.4780    5.3564 H   0  0  0  0  0  0  0  0  0  0  0  0
    4.5433    0.1371   11.3128 H   0  0  0  0  0  0  0  0  0  0  0  0
    4.9945   -2.9670   15.1174 H   0  0  0  0  0  0  0  0  0  0  0  0
    6.4264   -3.8032   14.9153 H   0  0  0  0  0  0  0  0  0  0  0  0
    7.2599   -2.2953   15.9997 H   0  0  0  0  0  0  0  0  0  0  0  0
    8.3186   -2.9369   14.1456 H   0  0  0  0  0  0  0  0  0  0  0  0
    8.7143   -1.2929   14.6028 H   0  0  0  0  0  0  0  0  0  0  0  0
    7.8962   -0.3957   12.8046 H   0  0  0  0  0  0  0  0  0  0  0  0
    7.5168   -1.6022   11.8485 H   0  0  0  0  0  0  0  0  0  0  0  0
  1  2  2  0
  2  3  1  0
  3  4  1  0
  4  5  2  0
  5  6  1  0
  6  7  2  0
  7  8  1  0
  8  9  1  0
  9 10  1  0
 10 11  1  0
 11 12  1  0
 12 13  1  0
 13 14  1  0
  2 15  1  0
 15 16  2  0
 16 17  1  0
 17 18  2  0
 18 19  1  0
 18 20  1  0
 20 21  1  0
 21 22  1  0
 22 23  1  0
  8  4  1  0
 14  9  1  0
 19 15  1  0
 23 17  1  0
  3 24  1  0
  5 25  1  0
  6 26  1  0
  9 27  1  0
 10 28  1  0
 10 29  1  0
 11 30  1  0
 11 31  1  0
 12 32  1  0
 12 33  1  0
 14 34  1  0
 14 35  1  0
 16 36  1  0
 20 37  1  0
 20 38  1  0
 21 39  1  0
 22 40  1  0
 22 41  1  0
 23 42  1  0
 23 43  1  0
M  END
>  <Energy>  (81) 
764.17210761991703

>  <compound_id>  (81) 
50702

>  <target_id>  (81) 
1

>  <reference_id>  (81) 
127

>  <inspiration_ids>  (81) 
[127, 146]

>  <energy_score>  (81) 
623.8694943786088

>  <distance_score>  (81) 
7.870602857643477

>  <path>  (81) 
/opt/xchem-fragalysis-2/maxwin/BulkDock/SCRATCH/511025/C50702-P127/C50702-P127.minimised.mol

>  <scratch_subdir>  (81) 
/opt/xchem-fragalysis-2/maxwin/BulkDock/SCRATCH/511025/C50702-P127

>  <fragmenstein_runtime>  (81) 
12.56734299659729

>  <fragmenstein_outcome>  (81) 
too moved

>  <fragmenstein_mode>  (81) 
expansion

>  <fragmenstein_error>  (81) 


$$$$
C50702-P146
     RDKit          3D

 43 46  0  0  0  0  0  0  0  0999 V2000
    1.6235    4.3102    5.3914 O   0  0  0  0  0  0  0  0  0  0  0  0
    0.9782    4.4661    6.3903 C   0  0  0  0  0  0  0  0  0  0  0  0
   -0.4541    4.6764    6.5716 N   0  0  0  0  0  0  0  0  0  0  0  0
   -1.5000    4.6658    5.6504 C   0  0  0  0  0  0  0  0  0  0  0  0
   -1.3835    4.4027    4.2969 C   0  0  0  0  0  0  0  0  0  0  0  0
   -2.6869    4.2320    3.8082 C   0  0  0  0  0  0  0  0  0  0  0  0
   -3.6003    4.4143    4.7532 N   0  0  0  0  0  0  0  0  0  0  0  0
   -2.8741    4.7827    5.8461 N   0  0  0  0  0  0  0  0  0  0  0  0
   -3.6185    5.2763    6.9957 C   0  0  0  0  0  0  0  0  0  0  0  0
   -4.2186    4.1564    7.8230 C   0  0  0  0  0  0  0  0  0  0  0  0
   -5.4449    3.4957    7.1827 C   0  0  0  0  0  0  0  0  0  0  0  0
   -6.3082    4.4824    6.4176 C   0  0  0  0  0  0  0  0  0  0  0  0
   -6.0720    5.7967    6.9106 O   0  0  0  0  0  0  0  0  0  0  0  0
   -4.7449    6.2604    6.5988 C   0  0  0  0  0  0  0  0  0  0  0  0
    1.7842    4.3414    7.6549 C   0  0  0  0  0  0  0  0  0  0  0  0
    3.1520    4.0365    7.7061 C   0  0  0  0  0  0  0  0  0  0  0  0
    3.6827    3.9638    9.0235 C   0  0  0  0  0  0  0  0  0  0  0  0
    2.6939    4.1385    9.9674 C   0  0  0  0  0  0  0  0  0  0  0  0
    1.1875    4.5467    9.2481 S   0  0  0  0  0  0  0  0  0  0  0  0
    2.9344    4.0785   11.4577 C   0  0  0  0  0  0  0  0  0  0  0  0
    4.3007    3.6180   11.7676 N   0  0  0  0  0  0  0  0  0  0  0  0
    5.2942    4.2421   10.8912 C   0  0  0  0  0  0  0  0  0  0  0  0
    5.0947    3.7190    9.4537 C   0  0  0  0  0  0  0  0  0  0  0  0
   -0.6648    4.6865    7.5663 H   0  0  0  0  0  0  0  0  0  0  0  0
   -0.4611    4.2638    3.7497 H   0  0  0  0  0  0  0  0  0  0  0  0
   -3.0019    3.9682    2.8070 H   0  0  0  0  0  0  0  0  0  0  0  0
   -2.8801    5.8230    7.5959 H   0  0  0  0  0  0  0  0  0  0  0  0
   -4.5355    4.6204    8.7669 H   0  0  0  0  0  0  0  0  0  0  0  0
   -3.4648    3.4079    8.0746 H   0  0  0  0  0  0  0  0  0  0  0  0
   -6.0571    3.0396    7.9670 H   0  0  0  0  0  0  0  0  0  0  0  0
   -5.1596    2.6749    6.5265 H   0  0  0  0  0  0  0  0  0  0  0  0
   -6.1278    4.4501    5.3385 H   0  0  0  0  0  0  0  0  0  0  0  0
   -7.3675    4.2474    6.5657 H   0  0  0  0  0  0  0  0  0  0  0  0
   -4.7151    6.5629    5.5458 H   0  0  0  0  0  0  0  0  0  0  0  0
   -4.6166    7.1827    7.1777 H   0  0  0  0  0  0  0  0  0  0  0  0
    3.7391    3.8882    6.8056 H   0  0  0  0  0  0  0  0  0  0  0  0
    2.7831    5.0766   11.8860 H   0  0  0  0  0  0  0  0  0  0  0  0
    2.2184    3.3982   11.9296 H   0  0  0  0  0  0  0  0  0  0  0  0
    4.4930    3.7451   12.7620 H   0  0  0  0  0  0  0  0  0  0  0  0
    5.1961    5.3352   10.9261 H   0  0  0  0  0  0  0  0  0  0  0  0
    6.3058    4.0227   11.2296 H   0  0  0  0  0  0  0  0  0  0  0  0
    5.2579    2.6383    9.4149 H   0  0  0  0  0  0  0  0  0  0  0  0
    5.7974    4.2105    8.7731 H   0  0  0  0  0  0  0  0  0  0  0  0
  1  2  2  0
  2  3  1  0
  3  4  1  0
  4  5  2  0
  5  6  1  0
  6  7  2  0
  7  8  1  0
  8  9  1  0
  9 10  1  0
 10 11  1  0
 11 12  1  0
 12 13  1  0
 13 14  1  0
  2 15  1  0
 15 16  2  0
 16 17  1  0
 17 18  2  0
 18 19  1  0
 18 20  1  0
 20 21  1  0
 21 22  1  0
 22 23  1  0
  8  4  1  0
 14  9  1  0
 19 15  1  0
 23 17  1  0
  3 24  1  0
  5 25  1  0
  6 26  1  0
  9 27  1  0
 10 28  1  0
 10 29  1  0
 11 30  1  0
 11 31  1  0
 12 32  1  0
 12 33  1  0
 14 34  1  0
 14 35  1  0
 16 36  1  0
 20 37  1  0
 20 38  1  0
 21 39  1  0
 22 40  1  0
 22 41  1  0
 23 42  1  0
 23 43  1  0
M  END
>  <Energy>  (82) 
84.523220216657123

>  <compound_id>  (82) 
50702

>  <target_id>  (82) 
1

>  <reference_id>  (82) 
146

>  <inspiration_ids>  (82) 
[127, 146]

>  <energy_score>  (82) 
-55.77939302464756

>  <distance_score>  (82) 
11.45918541608339

>  <path>  (82) 
/opt/xchem-fragalysis-2/maxwin/BulkDock/SCRATCH/511025/C50702-P146/C50702-P146.minimised.mol

>  <scratch_subdir>  (82) 
/opt/xchem-fragalysis-2/maxwin/BulkDock/SCRATCH/511025/C50702-P146

>  <fragmenstein_runtime>  (82) 
10.016648530960083

>  <fragmenstein_outcome>  (82) 
too moved

>  <fragmenstein_mode>  (82) 
expansion

>  <fragmenstein_error>  (82) 


$$$$
C50703-P127
     RDKit          3D

 44 46  0  0  0  0  0  0  0  0999 V2000
   -7.4106   -0.9161    7.6902 C   0  0  0  0  0  0  0  0  0  0  0  0
   -6.3443   -0.7149    6.6190 C   0  0  0  0  0  0  0  0  0  0  0  0
   -5.7250   -2.0479    6.1995 C   0  0  0  0  0  0  0  0  0  0  0  0
   -5.2892    0.3344    7.0171 C   0  0  0  0  0  0  0  0  0  0  0  0
   -4.1987   -0.0533    7.9749 C   0  0  0  0  0  0  0  0  0  0  0  0
   -4.2067   -0.1657    9.3926 C   0  0  0  0  0  0  0  0  0  0  0  0
   -2.8922   -0.0655    9.9705 C   0  0  0  0  0  0  0  0  0  0  0  0
   -1.8285    0.1077   11.7021 C   0  0  0  0  0  0  0  0  0  0  0  0
   -2.3999    0.6450   12.6172 O   0  0  0  0  0  0  0  0  0  0  0  0
   -0.1909   -0.7287   11.6452 N   0  0  0  0  0  0  0  0  0  0  0  0
    1.1895   -1.2133   13.1152 C   0  0  0  0  0  0  0  0  0  0  0  0
    2.4120   -2.9962   13.3463 C   0  0  0  0  0  0  0  0  0  0  0  0
    2.9688   -3.9818   14.2164 C   0  0  0  0  0  0  0  0  0  0  0  0
    4.5219   -3.5768   15.1260 C   0  0  0  0  0  0  0  0  0  0  0  0
    5.6890   -3.0640   14.5128 C   0  0  0  0  0  0  0  0  0  0  0  0
    5.4372   -3.0349   12.9555 C   0  0  0  0  0  0  0  0  0  0  0  0
    3.8136   -3.1466   12.3815 C   0  0  0  0  0  0  0  0  0  0  0  0
    6.5571   -1.8949   12.7357 C   0  0  0  0  0  0  0  0  0  0  0  0
    7.3570   -1.6859   13.9616 N   0  0  0  0  0  0  0  0  0  0  0  0
    7.0301   -2.6482   14.9450 C   0  0  0  0  0  0  0  0  0  0  0  0
   -2.4033   -0.7547    8.7233 N   0  0  0  0  0  0  0  0  0  0  0  0
   -2.9769   -0.3261    7.5716 N   0  0  0  0  0  0  0  0  0  0  0  0
   -8.2131   -1.5665    7.3269 H   0  0  0  0  0  0  0  0  0  0  0  0
   -7.8568    0.0363    7.9932 H   0  0  0  0  0  0  0  0  0  0  0  0
   -6.9678   -1.3866    8.5650 H   0  0  0  0  0  0  0  0  0  0  0  0
   -6.8667   -0.3104    5.7410 H   0  0  0  0  0  0  0  0  0  0  0  0
   -6.4945   -2.7262    5.8153 H   0  0  0  0  0  0  0  0  0  0  0  0
   -5.2312   -2.5487    7.0379 H   0  0  0  0  0  0  0  0  0  0  0  0
   -4.9852   -1.9000    5.4059 H   0  0  0  0  0  0  0  0  0  0  0  0
   -5.7984    1.2207    7.4176 H   0  0  0  0  0  0  0  0  0  0  0  0
   -4.8049    0.6796    6.0921 H   0  0  0  0  0  0  0  0  0  0  0  0
   -5.1842   -0.2321    9.7700 H   0  0  0  0  0  0  0  0  0  0  0  0
    0.0373   -1.0152   10.6977 H   0  0  0  0  0  0  0  0  0  0  0  0
    1.7636   -0.2851   13.0945 H   0  0  0  0  0  0  0  0  0  0  0  0
    0.5963   -1.3265   13.9885 H   0  0  0  0  0  0  0  0  0  0  0  0
    2.3231   -4.5913   14.8362 H   0  0  0  0  0  0  0  0  0  0  0  0
    4.4003   -3.9001   16.1658 H   0  0  0  0  0  0  0  0  0  0  0  0
    3.6830   -2.7004   11.3950 H   0  0  0  0  0  0  0  0  0  0  0  0
    6.0250   -0.9875   12.5959 H   0  0  0  0  0  0  0  0  0  0  0  0
    7.1509   -2.0659   11.8625 H   0  0  0  0  0  0  0  0  0  0  0  0
    8.3450   -1.7362   13.6995 H   0  0  0  0  0  0  0  0  0  0  0  0
    7.7922   -3.4168   14.9866 H   0  0  0  0  0  0  0  0  0  0  0  0
    7.0890   -2.1130   15.8864 H   0  0  0  0  0  0  0  0  0  0  0  0
   -1.5092   -1.2190    8.6224 H   0  0  0  0  0  0  0  0  0  0  0  0
  1  2  1  0
  2  3  1  0
  2  4  1  0
  4  5  1  0
  5  6  1  0
  6  7  2  0
  7  8  1  0
  8  9  2  0
  8 10  1  0
 10 11  1  0
 11 12  1  0
 12 13  2  0
 13 14  1  0
 14 15  2  0
 15 16  1  0
 16 17  2  0
 16 18  1  0
 18 19  1  0
 19 20  1  0
  7 21  1  0
 21 22  1  0
 22  5  2  0
 17 12  1  0
 20 15  1  0
  1 23  1  0
  1 24  1  0
  1 25  1  0
  2 26  1  0
  3 27  1  0
  3 28  1  0
  3 29  1  0
  4 30  1  0
  4 31  1  0
  6 32  1  0
 10 33  1  0
 11 34  1  0
 11 35  1  0
 13 36  1  0
 14 37  1  0
 17 38  1  0
 18 39  1  0
 18 40  1  0
 19 41  1  0
 20 42  1  0
 20 43  1  0
 21 44  1  0
M  END
>  <Energy>  (83) 
687.37522127365207

>  <compound_id>  (83) 
50703

>  <target_id>  (83) 
1

>  <reference_id>  (83) 
127

>  <inspiration_ids>  (83) 
[127, 146]

>  <energy_score>  (83) 
673.7897649407575

>  <distance_score>  (83) 
9.054482405833644

>  <path>  (83) 
/opt/xchem-fragalysis-2/maxwin/BulkDock/SCRATCH/511025/C50703-P127/C50703-P127.minimised.mol

>  <scratch_subdir>  (83) 
/opt/xchem-fragalysis-2/maxwin/BulkDock/SCRATCH/511025/C50703-P127

>  <fragmenstein_runtime>  (83) 
19.21143627166748

>  <fragmenstein_outcome>  (83) 
too moved

>  <fragmenstein_mode>  (83) 
expansion

>  <fragmenstein_error>  (83) 


$$$$
C50703-P146
     RDKit          3D

 44 46  0  0  0  0  0  0  0  0999 V2000
   -8.1034   -1.7038    8.3826 C   0  0  0  0  0  0  0  0  0  0  0  0
   -6.9061   -1.0371    9.1725 C   0  0  0  0  0  0  0  0  0  0  0  0
   -5.6040   -1.2323    8.3581 C   0  0  0  0  0  0  0  0  0  0  0  0
   -6.9052   -0.9338   11.1076 C   0  0  0  0  0  0  0  0  0  0  0  0
   -5.3857   -0.7285   12.2599 C   0  0  0  0  0  0  0  0  0  0  0  0
   -4.0735   -0.4073   11.8173 C   0  0  0  0  0  0  0  0  0  0  0  0
   -2.9924   -0.7128   12.7467 C   0  0  0  0  0  0  0  0  0  0  0  0
   -1.1126   -1.0221   12.4562 C   0  0  0  0  0  0  0  0  0  0  0  0
   -0.8416   -0.7637   11.4070 O   0  0  0  0  0  0  0  0  0  0  0  0
    0.2691   -1.6349   13.5078 N   0  0  0  0  0  0  0  0  0  0  0  0
    1.6681   -1.7558   13.2519 C   0  0  0  0  0  0  0  0  0  0  0  0
    2.7722   -3.4382   13.2567 C   0  0  0  0  0  0  0  0  0  0  0  0
    3.2750   -4.1900   14.5234 C   0  0  0  0  0  0  0  0  0  0  0  0
    4.7401   -3.4766   15.3639 C   0  0  0  0  0  0  0  0  0  0  0  0
    5.7378   -2.8249   14.4339 C   0  0  0  0  0  0  0  0  0  0  0  0
    5.3381   -3.0109   12.6910 C   0  0  0  0  0  0  0  0  0  0  0  0
    3.9088   -3.3627   12.2114 C   0  0  0  0  0  0  0  0  0  0  0  0
    6.5581   -1.8009   12.2916 C   0  0  0  0  0  0  0  0  0  0  0  0
    7.2682   -1.3504   13.5097 N   0  0  0  0  0  0  0  0  0  0  0  0
    7.1125   -2.2516   14.5995 C   0  0  0  0  0  0  0  0  0  0  0  0
   -3.9600   -0.2209   13.7492 N   0  0  0  0  0  0  0  0  0  0  0  0
   -5.3166   -0.5207   13.5715 N   0  0  0  0  0  0  0  0  0  0  0  0
   -8.0130   -2.7911    8.3167 H   0  0  0  0  0  0  0  0  0  0  0  0
   -8.1161   -1.3330    7.3496 H   0  0  0  0  0  0  0  0  0  0  0  0
   -9.0696   -1.4381    8.8271 H   0  0  0  0  0  0  0  0  0  0  0  0
   -7.2423   -0.0288    8.8782 H   0  0  0  0  0  0  0  0  0  0  0  0
   -5.5602   -0.4792    7.5602 H   0  0  0  0  0  0  0  0  0  0  0  0
   -5.5860   -2.1958    7.8426 H   0  0  0  0  0  0  0  0  0  0  0  0
   -4.6833   -1.1236    8.9274 H   0  0  0  0  0  0  0  0  0  0  0  0
   -7.6450   -1.2526   11.8388 H   0  0  0  0  0  0  0  0  0  0  0  0
   -7.6769   -0.1524   10.9476 H   0  0  0  0  0  0  0  0  0  0  0  0
   -3.9324   -0.2655   10.7502 H   0  0  0  0  0  0  0  0  0  0  0  0
   -0.1033   -1.9184   14.3978 H   0  0  0  0  0  0  0  0  0  0  0  0
    1.7247   -1.2906   12.2037 H   0  0  0  0  0  0  0  0  0  0  0  0
    1.8411   -0.7917   13.5961 H   0  0  0  0  0  0  0  0  0  0  0  0
    2.7344   -4.9184   15.0852 H   0  0  0  0  0  0  0  0  0  0  0  0
    4.6392   -3.6992   16.4114 H   0  0  0  0  0  0  0  0  0  0  0  0
    3.5953   -3.0760   11.2099 H   0  0  0  0  0  0  0  0  0  0  0  0
    7.1617   -2.1932   11.5015 H   0  0  0  0  0  0  0  0  0  0  0  0
    6.1138   -0.9003   11.9515 H   0  0  0  0  0  0  0  0  0  0  0  0
    8.2561   -1.2509   13.2511 H   0  0  0  0  0  0  0  0  0  0  0  0
    7.8889   -3.0097   14.6169 H   0  0  0  0  0  0  0  0  0  0  0  0
    7.2927   -1.6303   15.4717 H   0  0  0  0  0  0  0  0  0  0  0  0
   -3.7457    0.3322   14.5732 H   0  0  0  0  0  0  0  0  0  0  0  0
  1  2  1  0
  2  3  1  0
  2  4  1  0
  4  5  1  0
  5  6  1  0
  6  7  2  0
  7  8  1  0
  8  9  2  0
  8 10  1  0
 10 11  1  0
 11 12  1  0
 12 13  2  0
 13 14  1  0
 14 15  2  0
 15 16  1  0
 16 17  2  0
 16 18  1  0
 18 19  1  0
 19 20  1  0
  7 21  1  0
 21 22  1  0
 22  5  2  0
 17 12  1  0
 20 15  1  0
  1 23  1  0
  1 24  1  0
  1 25  1  0
  2 26  1  0
  3 27  1  0
  3 28  1  0
  3 29  1  0
  4 30  1  0
  4 31  1  0
  6 32  1  0
 10 33  1  0
 11 34  1  0
 11 35  1  0
 13 36  1  0
 14 37  1  0
 17 38  1  0
 18 39  1  0
 18 40  1  0
 19 41  1  0
 20 42  1  0
 20 43  1  0
 21 44  1  0
M  END
>  <Energy>  (84) 
648.11951106312767

>  <compound_id>  (84) 
50703

>  <target_id>  (84) 
1

>  <reference_id>  (84) 
146

>  <inspiration_ids>  (84) 
[127, 146]

>  <energy_score>  (84) 
634.5340547302164

>  <distance_score>  (84) 
9.269311460403483

>  <path>  (84) 
/opt/xchem-fragalysis-2/maxwin/BulkDock/SCRATCH/511025/C50703-P146/C50703-P146.minimised.mol

>  <scratch_subdir>  (84) 
/opt/xchem-fragalysis-2/maxwin/BulkDock/SCRATCH/511025/C50703-P146

>  <fragmenstein_runtime>  (84) 
16.833882808685303

>  <fragmenstein_outcome>  (84) 
too moved

>  <fragmenstein_mode>  (84) 
expansion

>  <fragmenstein_error>  (84) 


$$$$
C50705-P127
     RDKit          3D

 42 44  0  0  0  0  0  0  0  0999 V2000
   -1.7017   -3.8833   13.2124 C   0  0  0  0  0  0  0  0  0  0  0  0
   -1.5367   -2.4007   13.0673 N   0  0  0  0  0  0  0  0  0  0  0  0
   -0.0709   -2.3303   14.5288 C   0  0  0  0  0  0  0  0  0  0  0  0
    0.3939   -1.0742   16.0450 C   0  0  0  0  0  0  0  0  0  0  0  0
    0.5666   -1.3258   17.3986 C   0  0  0  0  0  0  0  0  0  0  0  0
    1.3510   -0.4497   18.2454 C   0  0  0  0  0  0  0  0  0  0  0  0
    1.7526    0.8810   17.9314 C   0  0  0  0  0  0  0  0  0  0  0  0
    1.4937    1.3211   16.6661 C   0  0  0  0  0  0  0  0  0  0  0  0
    0.9975    0.3506   15.7849 C   0  0  0  0  0  0  0  0  0  0  0  0
    1.8978    2.6802   16.1628 C   0  0  0  0  0  0  0  0  0  0  0  0
    2.1910    3.6550   17.2235 N   0  0  0  0  0  0  0  0  0  0  0  0
    3.1136    3.0692   18.1974 C   0  0  0  0  0  0  0  0  0  0  0  0
    2.5022    1.8190   18.8722 C   0  0  0  0  0  0  0  0  0  0  0  0
   -2.6921   -0.7411   12.6777 C   0  0  0  0  0  0  0  0  0  0  0  0
   -4.0512   -0.5375   11.0539 C   0  0  0  0  0  0  0  0  0  0  0  0
   -3.1813   -0.8463    9.3953 C   0  0  0  0  0  0  0  0  0  0  0  0
   -3.4854   -0.4754    8.1540 N   0  0  0  0  0  0  0  0  0  0  0  0
   -4.6540   -0.0212    8.3834 N   0  0  0  0  0  0  0  0  0  0  0  0
   -5.5695    0.2800    7.3047 C   0  0  0  0  0  0  0  0  0  0  0  0
   -4.9637   -0.3326    9.6665 C   0  0  0  0  0  0  0  0  0  0  0  0
   -1.3367   -4.2739   14.1512 H   0  0  0  0  0  0  0  0  0  0  0  0
   -1.0807   -4.5306   12.6327 H   0  0  0  0  0  0  0  0  0  0  0  0
   -2.6495   -4.3104   13.0150 H   0  0  0  0  0  0  0  0  0  0  0  0
    0.4909   -1.6136   13.9059 H   0  0  0  0  0  0  0  0  0  0  0  0
   -0.8484   -2.6582   15.1634 H   0  0  0  0  0  0  0  0  0  0  0  0
    0.1179   -2.1330   17.9228 H   0  0  0  0  0  0  0  0  0  0  0  0
    1.6153   -0.8519   19.2235 H   0  0  0  0  0  0  0  0  0  0  0  0
    1.0369    0.7132   14.7353 H   0  0  0  0  0  0  0  0  0  0  0  0
    1.0703    3.0890   15.5696 H   0  0  0  0  0  0  0  0  0  0  0  0
    2.7446    2.6031   15.4851 H   0  0  0  0  0  0  0  0  0  0  0  0
    1.3070    3.8359   17.6996 H   0  0  0  0  0  0  0  0  0  0  0  0
    4.0849    2.8957   17.7312 H   0  0  0  0  0  0  0  0  0  0  0  0
    3.3126    3.8153   18.9769 H   0  0  0  0  0  0  0  0  0  0  0  0
    1.7956    2.2302   19.5971 H   0  0  0  0  0  0  0  0  0  0  0  0
    3.2732    1.2775   19.4306 H   0  0  0  0  0  0  0  0  0  0  0  0
   -1.8726   -0.0275   12.3648 H   0  0  0  0  0  0  0  0  0  0  0  0
   -3.2495   -0.3194   13.4786 H   0  0  0  0  0  0  0  0  0  0  0  0
   -2.2262   -1.3391    9.3284 H   0  0  0  0  0  0  0  0  0  0  0  0
   -5.8683   -0.6591    6.8323 H   0  0  0  0  0  0  0  0  0  0  0  0
   -6.4413    0.7990    7.7106 H   0  0  0  0  0  0  0  0  0  0  0  0
   -5.0567    0.9272    6.5886 H   0  0  0  0  0  0  0  0  0  0  0  0
   -6.0589   -0.3907    9.7113 H   0  0  0  0  0  0  0  0  0  0  0  0
  1  2  1  0
  2  3  1  0
  3  4  1  0
  4  5  2  0
  5  6  1  0
  6  7  2  0
  7  8  1  0
  8  9  2  0
  8 10  1  0
 10 11  1  0
 11 12  1  0
 12 13  1  0
  2 14  1  0
 14 15  1  0
 15 16  1  0
 16 17  2  0
 17 18  1  0
 18 19  1  0
 18 20  1  0
  9  4  1  0
 20 15  2  0
 13  7  1  0
  1 21  1  0
  1 22  1  0
  1 23  1  0
  3 24  1  0
  3 25  1  0
  5 26  1  0
  6 27  1  0
  9 28  1  0
 10 29  1  0
 10 30  1  0
 11 31  1  0
 12 32  1  0
 12 33  1  0
 13 34  1  0
 13 35  1  0
 14 36  1  0
 14 37  1  0
 16 38  1  0
 19 39  1  0
 19 40  1  0
 19 41  1  0
 20 42  1  0
M  END
>  <Energy>  (85) 
739.13967435961092

>  <compound_id>  (85) 
50705

>  <target_id>  (85) 
1

>  <reference_id>  (85) 
127

>  <inspiration_ids>  (85) 
[127, 146]

>  <energy_score>  (85) 
663.6274256393217

>  <distance_score>  (85) 
11.526382304572822

>  <path>  (85) 
/opt/xchem-fragalysis-2/maxwin/BulkDock/SCRATCH/511025/C50705-P127/C50705-P127.minimised.mol

>  <scratch_subdir>  (85) 
/opt/xchem-fragalysis-2/maxwin/BulkDock/SCRATCH/511025/C50705-P127

>  <fragmenstein_runtime>  (85) 
14.990036249160767

>  <fragmenstein_outcome>  (85) 
too moved

>  <fragmenstein_mode>  (85) 
expansion

>  <fragmenstein_error>  (85) 


$$$$
C50705-P146
     RDKit          3D

 42 44  0  0  0  0  0  0  0  0999 V2000
   -4.0217   -4.8400   17.2628 C   0  0  0  0  0  0  0  0  0  0  0  0
   -2.9477   -3.5904   16.3682 N   0  0  0  0  0  0  0  0  0  0  0  0
   -1.3434   -2.6496   17.3576 C   0  0  0  0  0  0  0  0  0  0  0  0
    0.5698   -1.9088   17.5606 C   0  0  0  0  0  0  0  0  0  0  0  0
    1.2500   -0.8071   18.1057 C   0  0  0  0  0  0  0  0  0  0  0  0
    2.9269   -0.6707   18.5184 C   0  0  0  0  0  0  0  0  0  0  0  0
    4.2511   -1.5302   18.1817 C   0  0  0  0  0  0  0  0  0  0  0  0
    3.7928   -2.6846   17.5707 C   0  0  0  0  0  0  0  0  0  0  0  0
    2.0731   -2.7527   17.5254 C   0  0  0  0  0  0  0  0  0  0  0  0
    4.7104   -3.3631   16.0615 C   0  0  0  0  0  0  0  0  0  0  0  0
    5.9412   -2.3264   15.0678 N   0  0  0  0  0  0  0  0  0  0  0  0
    6.9272   -1.0820   16.1468 C   0  0  0  0  0  0  0  0  0  0  0  0
    5.9394   -0.8298   17.8283 C   0  0  0  0  0  0  0  0  0  0  0  0
   -4.8544   -3.6548   15.7053 C   0  0  0  0  0  0  0  0  0  0  0  0
   -5.7471   -2.1211   14.9158 C   0  0  0  0  0  0  0  0  0  0  0  0
   -5.9482   -0.4543   14.8858 C   0  0  0  0  0  0  0  0  0  0  0  0
   -6.3277    0.1719   13.7718 N   0  0  0  0  0  0  0  0  0  0  0  0
   -6.4875   -0.9080   13.0409 N   0  0  0  0  0  0  0  0  0  0  0  0
   -7.2457   -0.9276   11.7904 C   0  0  0  0  0  0  0  0  0  0  0  0
   -6.7853   -2.2402   14.2120 C   0  0  0  0  0  0  0  0  0  0  0  0
   -3.5941   -5.6311   17.8969 H   0  0  0  0  0  0  0  0  0  0  0  0
   -4.5036   -5.5110   16.5368 H   0  0  0  0  0  0  0  0  0  0  0  0
   -4.6650   -4.2778   17.9625 H   0  0  0  0  0  0  0  0  0  0  0  0
   -0.8660   -3.2834   18.0634 H   0  0  0  0  0  0  0  0  0  0  0  0
   -0.9505   -2.8211   16.3726 H   0  0  0  0  0  0  0  0  0  0  0  0
    0.7325    0.1422   18.1424 H   0  0  0  0  0  0  0  0  0  0  0  0
    3.1129    0.3351   18.9292 H   0  0  0  0  0  0  0  0  0  0  0  0
    2.1083   -3.4234   16.7248 H   0  0  0  0  0  0  0  0  0  0  0  0
    5.1093   -4.3370   16.4042 H   0  0  0  0  0  0  0  0  0  0  0  0
    4.1618   -4.0247   15.3547 H   0  0  0  0  0  0  0  0  0  0  0  0
    6.6573   -2.9851   14.7702 H   0  0  0  0  0  0  0  0  0  0  0  0
    7.9259   -1.5370   16.1009 H   0  0  0  0  0  0  0  0  0  0  0  0
    7.1171   -0.0807   15.7888 H   0  0  0  0  0  0  0  0  0  0  0  0
    6.0435    0.2636   18.0065 H   0  0  0  0  0  0  0  0  0  0  0  0
    6.4240   -1.0685   18.7729 H   0  0  0  0  0  0  0  0  0  0  0  0
   -4.9482   -4.4529   14.9243 H   0  0  0  0  0  0  0  0  0  0  0  0
   -5.6383   -3.9837   16.4270 H   0  0  0  0  0  0  0  0  0  0  0  0
   -5.7032    0.3259   15.5651 H   0  0  0  0  0  0  0  0  0  0  0  0
   -6.6014   -1.1556   11.0138 H   0  0  0  0  0  0  0  0  0  0  0  0
   -8.1120   -1.4516   12.0970 H   0  0  0  0  0  0  0  0  0  0  0  0
   -7.7610   -0.2495   11.0656 H   0  0  0  0  0  0  0  0  0  0  0  0
   -7.1704   -3.2230   13.9497 H   0  0  0  0  0  0  0  0  0  0  0  0
  1  2  1  0
  2  3  1  0
  3  4  1  0
  4  5  2  0
  5  6  1  0
  6  7  2  0
  7  8  1  0
  8  9  2  0
  8 10  1  0
 10 11  1  0
 11 12  1  0
 12 13  1  0
  2 14  1  0
 14 15  1  0
 15 16  1  0
 16 17  2  0
 17 18  1  0
 18 19  1  0
 18 20  1  0
  9  4  1  0
 20 15  2  0
 13  7  1  0
  1 21  1  0
  1 22  1  0
  1 23  1  0
  3 24  1  0
  3 25  1  0
  5 26  1  0
  6 27  1  0
  9 28  1  0
 10 29  1  0
 10 30  1  0
 11 31  1  0
 12 32  1  0
 12 33  1  0
 13 34  1  0
 13 35  1  0
 14 36  1  0
 14 37  1  0
 16 38  1  0
 19 39  1  0
 19 40  1  0
 19 41  1  0
 20 42  1  0
M  END
>  <Energy>  (86) 
1199.9433169552415

>  <compound_id>  (86) 
50705

>  <target_id>  (86) 
1

>  <reference_id>  (86) 
146

>  <inspiration_ids>  (86) 
[127, 146]

>  <energy_score>  (86) 
1124.4310682349542

>  <distance_score>  (86) 
10.319048347902482

>  <path>  (86) 
/opt/xchem-fragalysis-2/maxwin/BulkDock/SCRATCH/511025/C50705-P146/C50705-P146.minimised.mol

>  <scratch_subdir>  (86) 
/opt/xchem-fragalysis-2/maxwin/BulkDock/SCRATCH/511025/C50705-P146

>  <fragmenstein_runtime>  (86) 
11.981835842132568

>  <fragmenstein_outcome>  (86) 
too moved

>  <fragmenstein_mode>  (86) 
expansion

>  <fragmenstein_error>  (86) 


$$$$
C50710-P127
     RDKit          3D

 38 40  0  0  0  0  0  0  0  0999 V2000
    8.3278   -1.8218   15.1917 C   0  0  0  0  0  0  0  0  0  0  0  0
    7.5332   -1.5812   14.0253 N   0  0  0  0  0  0  0  0  0  0  0  0
    6.3135   -2.0046   13.6924 C   0  0  0  0  0  0  0  0  0  0  0  0
    5.9036   -1.1248   12.4383 C   0  0  0  0  0  0  0  0  0  0  0  0
    3.8656   -0.9651   11.2992 S   0  0  0  0  0  0  0  0  0  0  0  0
    3.6929   -2.3970   11.0468 O   0  0  0  0  0  0  0  0  0  0  0  0
    4.0544    0.3169   10.6401 O   0  0  0  0  0  0  0  0  0  0  0  0
    1.7960   -0.9857   11.0266 N   0  0  0  0  0  0  0  0  0  0  0  0
    0.6879   -1.4895    9.5081 C   0  0  0  0  0  0  0  0  0  0  0  0
    1.3101   -1.9535    8.5997 O   0  0  0  0  0  0  0  0  0  0  0  0
   -1.3714   -1.2656    8.9220 C   0  0  0  0  0  0  0  0  0  0  0  0
   -2.4462   -0.1591    8.5797 C   0  0  0  0  0  0  0  0  0  0  0  0
   -3.8698    0.1352    8.2194 C   0  0  0  0  0  0  0  0  0  0  0  0
   -4.6543   -0.8250    7.7548 C   0  0  0  0  0  0  0  0  0  0  0  0
   -3.8908   -1.9244    7.5912 C   0  0  0  0  0  0  0  0  0  0  0  0
   -2.4273   -2.0646    8.1665 C   0  0  0  0  0  0  0  0  0  0  0  0
   -4.4508   -2.9935    6.6871 C   0  0  0  0  0  0  0  0  0  0  0  0
   -5.9137   -3.0631    6.6810 N   0  0  0  0  0  0  0  0  0  0  0  0
   -6.4796   -1.7611    6.3261 C   0  0  0  0  0  0  0  0  0  0  0  0
   -6.0747   -0.6880    7.3421 C   0  0  0  0  0  0  0  0  0  0  0  0
    7.1731   -1.1263   12.0124 C   0  0  0  0  0  0  0  0  0  0  0  0
    7.9038   -0.7148   13.0862 N   0  0  0  0  0  0  0  0  0  0  0  0
    7.7320   -1.5731   16.0676 H   0  0  0  0  0  0  0  0  0  0  0  0
    8.6088   -2.8739   15.1855 H   0  0  0  0  0  0  0  0  0  0  0  0
    9.2243   -1.1966   15.1710 H   0  0  0  0  0  0  0  0  0  0  0  0
    5.7380   -2.6226   14.3680 H   0  0  0  0  0  0  0  0  0  0  0  0
    1.1815   -0.6860   11.7806 H   0  0  0  0  0  0  0  0  0  0  0  0
   -2.2008    0.8500    8.2956 H   0  0  0  0  0  0  0  0  0  0  0  0
   -4.1895    1.1741    8.1541 H   0  0  0  0  0  0  0  0  0  0  0  0
   -2.3286   -3.0530    7.7772 H   0  0  0  0  0  0  0  0  0  0  0  0
   -4.0274   -3.9218    7.0516 H   0  0  0  0  0  0  0  0  0  0  0  0
   -4.0935   -2.8282    5.6648 H   0  0  0  0  0  0  0  0  0  0  0  0
   -6.2308   -3.7679    6.0162 H   0  0  0  0  0  0  0  0  0  0  0  0
   -7.5722   -1.8312    6.2876 H   0  0  0  0  0  0  0  0  0  0  0  0
   -6.1445   -1.4752    5.3206 H   0  0  0  0  0  0  0  0  0  0  0  0
   -6.7002   -0.7787    8.2384 H   0  0  0  0  0  0  0  0  0  0  0  0
   -6.2576    0.3023    6.9089 H   0  0  0  0  0  0  0  0  0  0  0  0
    7.4387   -0.9642   11.0028 H   0  0  0  0  0  0  0  0  0  0  0  0
  1  2  1  0
  2  3  1  0
  3  4  2  0
  4  5  1  0
  5  6  2  0
  5  7  2  0
  5  8  1  0
  8  9  1  0
  9 10  2  0
  9 11  1  0
 11 12  2  0
 12 13  1  0
 13 14  2  0
 14 15  1  0
 15 16  2  0
 15 17  1  0
 17 18  1  0
 18 19  1  0
 19 20  1  0
  4 21  1  0
 21 22  2  0
 22  2  1  0
 16 11  1  0
 20 14  1  0
  1 23  1  0
  1 24  1  0
  1 25  1  0
  3 26  1  0
  8 27  1  0
 12 28  1  0
 13 29  1  0
 16 30  1  0
 17 31  1  0
 17 32  1  0
 18 33  1  0
 19 34  1  0
 19 35  1  0
 20 36  1  0
 20 37  1  0
 21 38  1  0
M  END
>  <Energy>  (87) 
640.79293482849164

>  <compound_id>  (87) 
50710

>  <target_id>  (87) 
1

>  <reference_id>  (87) 
127

>  <inspiration_ids>  (87) 
[127, 146]

>  <energy_score>  (87) 
636.8081283469678

>  <distance_score>  (87) 
8.441476121092172

>  <path>  (87) 
/opt/xchem-fragalysis-2/maxwin/BulkDock/SCRATCH/511025/C50710-P127/C50710-P127.minimised.mol

>  <scratch_subdir>  (87) 
/opt/xchem-fragalysis-2/maxwin/BulkDock/SCRATCH/511025/C50710-P127

>  <fragmenstein_runtime>  (87) 
20.7201509475708

>  <fragmenstein_outcome>  (87) 
too moved

>  <fragmenstein_mode>  (87) 
expansion

>  <fragmenstein_error>  (87) 


$$$$
C50710-P146
     RDKit          3D

 38 40  0  0  0  0  0  0  0  0999 V2000
    3.9136    0.1525   16.8637 C   0  0  0  0  0  0  0  0  0  0  0  0
    2.9061   -0.6743   16.2454 N   0  0  0  0  0  0  0  0  0  0  0  0
    1.7040   -0.2611   15.7324 C   0  0  0  0  0  0  0  0  0  0  0  0
    1.0090   -1.4084   15.3847 C   0  0  0  0  0  0  0  0  0  0  0  0
   -0.7165   -1.5994   15.0934 S   0  0  0  0  0  0  0  0  0  0  0  0
   -0.9240   -3.0128   15.3476 O   0  0  0  0  0  0  0  0  0  0  0  0
   -1.3122   -0.6053   15.9581 O   0  0  0  0  0  0  0  0  0  0  0  0
   -1.2874   -1.3775   13.5491 N   0  0  0  0  0  0  0  0  0  0  0  0
   -1.5845   -0.1623   12.8043 C   0  0  0  0  0  0  0  0  0  0  0  0
   -1.4713    0.9906   13.1175 O   0  0  0  0  0  0  0  0  0  0  0  0
   -2.0467   -0.3287   11.2369 C   0  0  0  0  0  0  0  0  0  0  0  0
   -3.8403   -0.3330   10.4424 C   0  0  0  0  0  0  0  0  0  0  0  0
   -4.8487   -0.7609    9.1285 C   0  0  0  0  0  0  0  0  0  0  0  0
   -4.5169   -0.7299    7.8486 C   0  0  0  0  0  0  0  0  0  0  0  0
   -3.2314   -1.0631    7.9581 C   0  0  0  0  0  0  0  0  0  0  0  0
   -2.3224   -0.8371    9.3435 C   0  0  0  0  0  0  0  0  0  0  0  0
   -2.9302   -2.2860    7.1169 C   0  0  0  0  0  0  0  0  0  0  0  0
   -4.0127   -2.8747    6.3049 N   0  0  0  0  0  0  0  0  0  0  0  0
   -4.8299   -1.8511    5.6690 C   0  0  0  0  0  0  0  0  0  0  0  0
   -5.4638   -0.9710    6.7327 C   0  0  0  0  0  0  0  0  0  0  0  0
    1.9357   -2.4513   15.6432 C   0  0  0  0  0  0  0  0  0  0  0  0
    3.0903   -2.0098   16.1669 N   0  0  0  0  0  0  0  0  0  0  0  0
    4.8877   -0.1068   16.4437 H   0  0  0  0  0  0  0  0  0  0  0  0
    3.8982   -0.0389   17.9394 H   0  0  0  0  0  0  0  0  0  0  0  0
    3.6920    1.2036   16.6638 H   0  0  0  0  0  0  0  0  0  0  0  0
    1.3911    0.7736   15.7713 H   0  0  0  0  0  0  0  0  0  0  0  0
   -1.5827   -2.1742   13.0097 H   0  0  0  0  0  0  0  0  0  0  0  0
   -3.6741    0.5787    9.6620 H   0  0  0  0  0  0  0  0  0  0  0  0
   -5.8986   -1.0269    9.2995 H   0  0  0  0  0  0  0  0  0  0  0  0
   -1.5550   -1.5054    9.0766 H   0  0  0  0  0  0  0  0  0  0  0  0
   -2.7136   -3.0730    7.8253 H   0  0  0  0  0  0  0  0  0  0  0  0
   -2.0790   -2.0589    6.5179 H   0  0  0  0  0  0  0  0  0  0  0  0
   -4.6143   -3.4140    6.9302 H   0  0  0  0  0  0  0  0  0  0  0  0
   -5.6179   -2.3207    5.0696 H   0  0  0  0  0  0  0  0  0  0  0  0
   -4.2150   -1.2860    4.9671 H   0  0  0  0  0  0  0  0  0  0  0  0
   -6.3605   -1.4802    7.1107 H   0  0  0  0  0  0  0  0  0  0  0  0
   -5.7939   -0.0195    6.3042 H   0  0  0  0  0  0  0  0  0  0  0  0
    1.7850   -3.5189   15.5396 H   0  0  0  0  0  0  0  0  0  0  0  0
  1  2  1  0
  2  3  1  0
  3  4  2  0
  4  5  1  0
  5  6  2  0
  5  7  2  0
  5  8  1  0
  8  9  1  0
  9 10  2  0
  9 11  1  0
 11 12  2  0
 12 13  1  0
 13 14  2  0
 14 15  1  0
 15 16  2  0
 15 17  1  0
 17 18  1  0
 18 19  1  0
 19 20  1  0
  4 21  1  0
 21 22  2  0
 22  2  1  0
 16 11  1  0
 20 14  1  0
  1 23  1  0
  1 24  1  0
  1 25  1  0
  3 26  1  0
  8 27  1  0
 12 28  1  0
 13 29  1  0
 16 30  1  0
 17 31  1  0
 17 32  1  0
 18 33  1  0
 19 34  1  0
 19 35  1  0
 20 36  1  0
 20 37  1  0
 21 38  1  0
M  END
>  <Energy>  (88) 
490.93611441250653

>  <compound_id>  (88) 
50710

>  <target_id>  (88) 
1

>  <reference_id>  (88) 
146

>  <inspiration_ids>  (88) 
[127, 146]

>  <energy_score>  (88) 
486.9513079309888

>  <distance_score>  (88) 
11.139075912211052

>  <path>  (88) 
/opt/xchem-fragalysis-2/maxwin/BulkDock/SCRATCH/511025/C50710-P146/C50710-P146.minimised.mol

>  <scratch_subdir>  (88) 
/opt/xchem-fragalysis-2/maxwin/BulkDock/SCRATCH/511025/C50710-P146

>  <fragmenstein_runtime>  (88) 
17.183756351470947

>  <fragmenstein_outcome>  (88) 
too moved

>  <fragmenstein_mode>  (88) 
expansion

>  <fragmenstein_error>  (88) 


$$$$
C50711-P127
     RDKit          3D

 35 37  0  0  0  0  0  0  0  0999 V2000
    2.7669   -2.3072   15.5362 C   0  0  0  0  0  0  0  0  0  0  0  0
    2.8366   -1.4863   14.3085 C   0  0  0  0  0  0  0  0  0  0  0  0
    4.0030   -1.4774   13.5884 N   0  0  0  0  0  0  0  0  0  0  0  0
    4.0283   -0.5371   12.6589 N   0  0  0  0  0  0  0  0  0  0  0  0
    2.8049   -0.0102   12.6828 C   0  0  0  0  0  0  0  0  0  0  0  0
    1.9474   -0.6636   13.5933 C   0  0  0  0  0  0  0  0  0  0  0  0
    0.1874   -0.3971   13.7579 S   0  0  0  0  0  0  0  0  0  0  0  0
   -0.2399   -1.4750   14.6325 O   0  0  0  0  0  0  0  0  0  0  0  0
    0.0889    0.9696   14.2284 O   0  0  0  0  0  0  0  0  0  0  0  0
   -0.8557   -0.5373   12.3133 N   0  0  0  0  0  0  0  0  0  0  0  0
   -0.4712   -1.0206   10.6587 C   0  0  0  0  0  0  0  0  0  0  0  0
    0.6484   -1.2693   10.2008 O   0  0  0  0  0  0  0  0  0  0  0  0
   -1.9766   -1.1491    9.2963 C   0  0  0  0  0  0  0  0  0  0  0  0
   -3.4143   -0.6446    9.2988 C   0  0  0  0  0  0  0  0  0  0  0  0
   -4.3524   -0.7722    8.2191 C   0  0  0  0  0  0  0  0  0  0  0  0
   -3.7168   -1.3861    7.2083 C   0  0  0  0  0  0  0  0  0  0  0  0
   -2.0935   -1.4109    7.5547 S   0  0  0  0  0  0  0  0  0  0  0  0
   -4.3634   -1.7682    5.9111 C   0  0  0  0  0  0  0  0  0  0  0  0
   -5.8361   -1.7372    6.0058 N   0  0  0  0  0  0  0  0  0  0  0  0
   -6.3099   -0.5126    6.6615 C   0  0  0  0  0  0  0  0  0  0  0  0
   -5.8105   -0.4243    8.1173 C   0  0  0  0  0  0  0  0  0  0  0  0
    3.7551   -2.4560   15.9837 H   0  0  0  0  0  0  0  0  0  0  0  0
    2.3401   -3.2896   15.3113 H   0  0  0  0  0  0  0  0  0  0  0  0
    2.1335   -1.8217   16.2852 H   0  0  0  0  0  0  0  0  0  0  0  0
    4.8412   -2.0319   13.7253 H   0  0  0  0  0  0  0  0  0  0  0  0
    2.6082    0.8076   12.0072 H   0  0  0  0  0  0  0  0  0  0  0  0
   -1.8585   -0.4826   12.4213 H   0  0  0  0  0  0  0  0  0  0  0  0
   -3.9020   -0.2725   10.1667 H   0  0  0  0  0  0  0  0  0  0  0  0
   -4.0790   -2.7837    5.6234 H   0  0  0  0  0  0  0  0  0  0  0  0
   -4.0349   -1.0823    5.1214 H   0  0  0  0  0  0  0  0  0  0  0  0
   -6.2360   -1.8148    5.0734 H   0  0  0  0  0  0  0  0  0  0  0  0
   -5.9767    0.3642    6.0915 H   0  0  0  0  0  0  0  0  0  0  0  0
   -7.4054   -0.4989    6.6579 H   0  0  0  0  0  0  0  0  0  0  0  0
   -6.3875   -1.1198    8.7290 H   0  0  0  0  0  0  0  0  0  0  0  0
   -6.0038    0.5839    8.4778 H   0  0  0  0  0  0  0  0  0  0  0  0
  1  2  1  0
  2  3  1  0
  3  4  1  0
  4  5  2  0
  5  6  1  0
  6  7  1  0
  7  8  2  0
  7  9  2  0
  7 10  1  0
 10 11  1  0
 11 12  2  0
 11 13  1  0
 13 14  2  0
 14 15  1  0
 15 16  2  0
 16 17  1  0
 16 18  1  0
 18 19  1  0
 19 20  1  0
 20 21  1  0
  6  2  2  0
 17 13  1  0
 21 15  1  0
  1 22  1  0
  1 23  1  0
  1 24  1  0
  3 25  1  0
  5 26  1  0
 10 27  1  0
 14 28  1  0
 18 29  1  0
 18 30  1  0
 19 31  1  0
 20 32  1  0
 20 33  1  0
 21 34  1  0
 21 35  1  0
M  END
>  <Energy>  (89) 
122.5708586482279

>  <compound_id>  (89) 
50711

>  <target_id>  (89) 
1

>  <reference_id>  (89) 
127

>  <inspiration_ids>  (89) 
[127, 146]

>  <energy_score>  (89) 
126.93900420648345

>  <distance_score>  (89) 
9.755943507450995

>  <path>  (89) 
/opt/xchem-fragalysis-2/maxwin/BulkDock/SCRATCH/511025/C50711-P127/C50711-P127.minimised.mol

>  <scratch_subdir>  (89) 
/opt/xchem-fragalysis-2/maxwin/BulkDock/SCRATCH/511025/C50711-P127

>  <fragmenstein_runtime>  (89) 
11.97317624092102

>  <fragmenstein_outcome>  (89) 
too moved

>  <fragmenstein_mode>  (89) 
expansion

>  <fragmenstein_error>  (89) 


$$$$
C50711-P146
     RDKit          3D

 35 37  0  0  0  0  0  0  0  0999 V2000
    2.5009   -1.3407   10.7245 C   0  0  0  0  0  0  0  0  0  0  0  0
    1.5978   -1.2863    9.5310 C   0  0  0  0  0  0  0  0  0  0  0  0
    2.1400   -0.7035    8.4219 N   0  0  0  0  0  0  0  0  0  0  0  0
    2.2876   -1.7067    7.5654 N   0  0  0  0  0  0  0  0  0  0  0  0
    1.5816   -2.6500    8.2091 C   0  0  0  0  0  0  0  0  0  0  0  0
    0.5157   -2.1015    9.0965 C   0  0  0  0  0  0  0  0  0  0  0  0
   -1.8447   -1.8414    8.4218 S   0  0  0  0  0  0  0  0  0  0  0  0
   -1.7109   -2.0871    6.9836 O   0  0  0  0  0  0  0  0  0  0  0  0
   -2.3106   -0.4916    8.7299 O   0  0  0  0  0  0  0  0  0  0  0  0
   -3.4392   -2.1508    8.2487 N   0  0  0  0  0  0  0  0  0  0  0  0
   -4.2252   -2.6042    7.0531 C   0  0  0  0  0  0  0  0  0  0  0  0
   -3.8599   -2.9343    5.9610 O   0  0  0  0  0  0  0  0  0  0  0  0
   -5.6778   -2.5263    7.2322 C   0  0  0  0  0  0  0  0  0  0  0  0
   -6.3663   -1.4466    7.7634 C   0  0  0  0  0  0  0  0  0  0  0  0
   -7.7697   -1.5151    7.5460 C   0  0  0  0  0  0  0  0  0  0  0  0
   -8.1096   -2.6371    6.8215 C   0  0  0  0  0  0  0  0  0  0  0  0
   -6.7563   -3.5736    6.4003 S   0  0  0  0  0  0  0  0  0  0  0  0
   -9.4931   -2.9582    6.3461 C   0  0  0  0  0  0  0  0  0  0  0  0
  -10.5166   -2.1504    7.0425 N   0  0  0  0  0  0  0  0  0  0  0  0
  -10.1126   -0.7366    7.1539 C   0  0  0  0  0  0  0  0  0  0  0  0
   -8.8168   -0.5275    7.9643 C   0  0  0  0  0  0  0  0  0  0  0  0
    3.0250   -2.2955   10.7738 H   0  0  0  0  0  0  0  0  0  0  0  0
    1.8735   -1.1764   11.5996 H   0  0  0  0  0  0  0  0  0  0  0  0
    3.1749   -0.4864   10.7752 H   0  0  0  0  0  0  0  0  0  0  0  0
    2.6746    0.1523    8.2921 H   0  0  0  0  0  0  0  0  0  0  0  0
    1.9257   -3.6768    8.1929 H   0  0  0  0  0  0  0  0  0  0  0  0
   -4.0771   -1.8691    8.9802 H   0  0  0  0  0  0  0  0  0  0  0  0
   -5.8637   -0.6046    8.2156 H   0  0  0  0  0  0  0  0  0  0  0  0
   -9.7188   -4.0193    6.5009 H   0  0  0  0  0  0  0  0  0  0  0  0
   -9.5638   -2.7640    5.2691 H   0  0  0  0  0  0  0  0  0  0  0  0
  -10.6133   -2.5522    7.9869 H   0  0  0  0  0  0  0  0  0  0  0  0
   -9.9934   -0.3210    6.1449 H   0  0  0  0  0  0  0  0  0  0  0  0
  -10.9249   -0.1727    7.6258 H   0  0  0  0  0  0  0  0  0  0  0  0
   -8.4550    0.4966    7.8203 H   0  0  0  0  0  0  0  0  0  0  0  0
   -9.0298   -0.6596    9.0311 H   0  0  0  0  0  0  0  0  0  0  0  0
  1  2  1  0
  2  3  1  0
  3  4  1  0
  4  5  2  0
  5  6  1  0
  6  7  1  0
  7  8  2  0
  7  9  2  0
  7 10  1  0
 10 11  1  0
 11 12  2  0
 11 13  1  0
 13 14  2  0
 14 15  1  0
 15 16  2  0
 16 17  1  0
 16 18  1  0
 18 19  1  0
 19 20  1  0
 20 21  1  0
  6  2  2  0
 17 13  1  0
 21 15  1  0
  1 22  1  0
  1 23  1  0
  1 24  1  0
  3 25  1  0
  5 26  1  0
 10 27  1  0
 14 28  1  0
 18 29  1  0
 18 30  1  0
 19 31  1  0
 20 32  1  0
 20 33  1  0
 21 34  1  0
 21 35  1  0
M  END
>  <Energy>  (90) 
309.41105708637087

>  <compound_id>  (90) 
50711

>  <target_id>  (90) 
1

>  <reference_id>  (90) 
146

>  <inspiration_ids>  (90) 
[127, 146]

>  <energy_score>  (90) 
313.77920264462534

>  <distance_score>  (90) 
10.367074482889516

>  <path>  (90) 
/opt/xchem-fragalysis-2/maxwin/BulkDock/SCRATCH/511025/C50711-P146/C50711-P146.minimised.mol

>  <scratch_subdir>  (90) 
/opt/xchem-fragalysis-2/maxwin/BulkDock/SCRATCH/511025/C50711-P146

>  <fragmenstein_runtime>  (90) 
11.901798725128174

>  <fragmenstein_outcome>  (90) 
too moved

>  <fragmenstein_mode>  (90) 
expansion

>  <fragmenstein_error>  (90) 


$$$$
C50713-P127
     RDKit          3D

 41 43  0  0  0  0  0  0  0  0999 V2000
   12.1568   -4.0011   12.2881 C   0  0  0  0  0  0  0  0  0  0  0  0
   11.9339   -3.6255   10.5931 C   0  0  0  0  0  0  0  0  0  0  0  0
   12.9737   -2.0129    9.8862 N   0  0  0  0  0  0  0  0  0  0  0  0
   12.0796   -0.4338   10.7599 N   0  0  0  0  0  0  0  0  0  0  0  0
   10.5486   -1.3140   11.3436 C   0  0  0  0  0  0  0  0  0  0  0  0
   10.0185   -3.3227   10.1769 C   0  0  0  0  0  0  0  0  0  0  0  0
    7.6968   -3.1855    8.8812 S   0  0  0  0  0  0  0  0  0  0  0  0
    7.2772   -4.4474    9.5268 O   0  0  0  0  0  0  0  0  0  0  0  0
    8.5044   -2.7536    7.6731 O   0  0  0  0  0  0  0  0  0  0  0  0
    5.1044   -3.4104    8.2115 N   0  0  0  0  0  0  0  0  0  0  0  0
    3.5463   -2.0692    7.2512 C   0  0  0  0  0  0  0  0  0  0  0  0
    4.0929   -1.0343    6.8788 O   0  0  0  0  0  0  0  0  0  0  0  0
    1.2949   -1.8273    6.9200 C   0  0  0  0  0  0  0  0  0  0  0  0
   -0.4903   -1.0640    6.6594 C   0  0  0  0  0  0  0  0  0  0  0  0
   -2.1201   -0.1286    7.0374 C   0  0  0  0  0  0  0  0  0  0  0  0
   -3.2029   -0.3299    6.3904 C   0  0  0  0  0  0  0  0  0  0  0  0
   -2.5924   -1.4686    6.4104 C   0  0  0  0  0  0  0  0  0  0  0  0
   -0.6655   -1.7227    6.6738 C   0  0  0  0  0  0  0  0  0  0  0  0
   -3.7053   -2.6953    6.4972 C   0  0  0  0  0  0  0  0  0  0  0  0
   -5.1401   -2.3667    6.9285 C   0  0  0  0  0  0  0  0  0  0  0  0
   -5.9708   -1.6155    5.8892 C   0  0  0  0  0  0  0  0  0  0  0  0
   -5.3740   -0.3855    5.3832 N   0  0  0  0  0  0  0  0  0  0  0  0
   -4.5210    0.2673    6.3654 C   0  0  0  0  0  0  0  0  0  0  0  0
   11.4752   -3.4430   12.9320 H   0  0  0  0  0  0  0  0  0  0  0  0
   11.8750   -5.0514   12.4187 H   0  0  0  0  0  0  0  0  0  0  0  0
   13.1807   -3.8292   12.6112 H   0  0  0  0  0  0  0  0  0  0  0  0
   13.9482   -1.8737   10.0518 H   0  0  0  0  0  0  0  0  0  0  0  0
   10.5916   -1.0127   12.4739 H   0  0  0  0  0  0  0  0  0  0  0  0
    4.6653   -4.2997    8.4410 H   0  0  0  0  0  0  0  0  0  0  0  0
   -1.2215   -1.1277    8.0752 H   0  0  0  0  0  0  0  0  0  0  0  0
   -2.2803    0.4213    7.9726 H   0  0  0  0  0  0  0  0  0  0  0  0
   -1.6441   -2.4592    7.2976 H   0  0  0  0  0  0  0  0  0  0  0  0
   -3.3341   -3.4567    7.1915 H   0  0  0  0  0  0  0  0  0  0  0  0
   -3.7832   -3.1328    5.4920 H   0  0  0  0  0  0  0  0  0  0  0  0
   -5.6644   -3.3101    7.1137 H   0  0  0  0  0  0  0  0  0  0  0  0
   -5.1342   -1.8215    7.8777 H   0  0  0  0  0  0  0  0  0  0  0  0
   -6.1750   -2.2724    5.0359 H   0  0  0  0  0  0  0  0  0  0  0  0
   -6.9432   -1.3799    6.3396 H   0  0  0  0  0  0  0  0  0  0  0  0
   -6.1182    0.2477    5.0941 H   0  0  0  0  0  0  0  0  0  0  0  0
   -4.9873    0.3035    7.3574 H   0  0  0  0  0  0  0  0  0  0  0  0
   -4.4211    1.3138    6.0630 H   0  0  0  0  0  0  0  0  0  0  0  0
  1  2  1  0
  2  3  1  0
  3  4  1  0
  4  5  2  0
  5  6  1  0
  6  7  1  0
  7  8  2  0
  7  9  2  0
  7 10  1  0
 10 11  1  0
 11 12  2  0
 11 13  1  0
 13 14  2  0
 14 15  1  0
 15 16  2  0
 16 17  1  0
 17 18  2  0
 17 19  1  0
 19 20  1  0
 20 21  1  0
 21 22  1  0
 22 23  1  0
  6  2  2  0
 18 13  1  0
 23 16  1  0
  1 24  1  0
  1 25  1  0
  1 26  1  0
  3 27  1  0
  5 28  1  0
 10 29  1  0
 14 30  1  0
 15 31  1  0
 18 32  1  0
 19 33  1  0
 19 34  1  0
 20 35  1  0
 20 36  1  0
 21 37  1  0
 21 38  1  0
 22 39  1  0
 23 40  1  0
 23 41  1  0
M  END
>  <Energy>  (91) 
3418.7680644795346

>  <compound_id>  (91) 
50713

>  <target_id>  (91) 
1

>  <reference_id>  (91) 
127

>  <inspiration_ids>  (91) 
[127, 146]

>  <energy_score>  (91) 
3415.2306398929477

>  <distance_score>  (91) 
7.545171921037391

>  <path>  (91) 
/opt/xchem-fragalysis-2/maxwin/BulkDock/SCRATCH/511025/C50713-P127/C50713-P127.minimised.mol

>  <scratch_subdir>  (91) 
/opt/xchem-fragalysis-2/maxwin/BulkDock/SCRATCH/511025/C50713-P127

>  <fragmenstein_runtime>  (91) 
18.87629461288452

>  <fragmenstein_outcome>  (91) 
too moved

>  <fragmenstein_mode>  (91) 
expansion

>  <fragmenstein_error>  (91) 


$$$$
C50713-P146
     RDKit          3D

 41 43  0  0  0  0  0  0  0  0999 V2000
    9.3003    0.1181   13.7770 C   0  0  0  0  0  0  0  0  0  0  0  0
    8.1754   -0.9152   13.8595 C   0  0  0  0  0  0  0  0  0  0  0  0
    8.5550   -1.8444   14.7688 N   0  0  0  0  0  0  0  0  0  0  0  0
    7.6446   -2.7281   14.9950 N   0  0  0  0  0  0  0  0  0  0  0  0
    6.6297   -2.3356   14.2296 C   0  0  0  0  0  0  0  0  0  0  0  0
    6.9840   -1.5643   13.0838 C   0  0  0  0  0  0  0  0  0  0  0  0
    5.6373   -0.7740   11.5266 S   0  0  0  0  0  0  0  0  0  0  0  0
    6.7889   -0.7591   10.5657 O   0  0  0  0  0  0  0  0  0  0  0  0
    5.8907   -0.1780   12.7671 O   0  0  0  0  0  0  0  0  0  0  0  0
    3.2617   -0.3589   10.9988 N   0  0  0  0  0  0  0  0  0  0  0  0
    1.8712   -1.3582    9.8272 C   0  0  0  0  0  0  0  0  0  0  0  0
    2.2974   -2.2968    9.1954 O   0  0  0  0  0  0  0  0  0  0  0  0
   -0.2696   -1.2291    9.5870 C   0  0  0  0  0  0  0  0  0  0  0  0
   -2.0087   -0.6523    8.9602 C   0  0  0  0  0  0  0  0  0  0  0  0
   -3.5824   -0.3168    8.4402 C   0  0  0  0  0  0  0  0  0  0  0  0
   -4.4044   -1.2878    8.1774 C   0  0  0  0  0  0  0  0  0  0  0  0
   -3.4493   -2.2158    8.0051 C   0  0  0  0  0  0  0  0  0  0  0  0
   -1.7844   -1.9673    8.6300 C   0  0  0  0  0  0  0  0  0  0  0  0
   -3.7198   -3.1076    6.7993 C   0  0  0  0  0  0  0  0  0  0  0  0
   -5.1671   -3.2493    6.2547 C   0  0  0  0  0  0  0  0  0  0  0  0
   -5.7468   -2.0348    5.5243 C   0  0  0  0  0  0  0  0  0  0  0  0
   -5.8803   -0.8125    6.2927 N   0  0  0  0  0  0  0  0  0  0  0  0
   -5.7951   -1.0751    7.7212 C   0  0  0  0  0  0  0  0  0  0  0  0
    9.2547    0.8044   14.6296 H   0  0  0  0  0  0  0  0  0  0  0  0
   10.2863   -0.3605   13.8876 H   0  0  0  0  0  0  0  0  0  0  0  0
    9.3568    0.6339   12.8247 H   0  0  0  0  0  0  0  0  0  0  0  0
    9.4271   -1.8899   15.2803 H   0  0  0  0  0  0  0  0  0  0  0  0
    5.6766   -2.6959   14.5565 H   0  0  0  0  0  0  0  0  0  0  0  0
    2.8158    0.4557   11.4154 H   0  0  0  0  0  0  0  0  0  0  0  0
   -2.1218    0.4201    8.6152 H   0  0  0  0  0  0  0  0  0  0  0  0
   -3.8795    0.7281    8.3016 H   0  0  0  0  0  0  0  0  0  0  0  0
   -1.6039   -2.2265    7.5276 H   0  0  0  0  0  0  0  0  0  0  0  0
   -3.3313   -4.1000    7.0332 H   0  0  0  0  0  0  0  0  0  0  0  0
   -3.1638   -2.6190    5.9978 H   0  0  0  0  0  0  0  0  0  0  0  0
   -5.2033   -4.0141    5.4863 H   0  0  0  0  0  0  0  0  0  0  0  0
   -5.8447   -3.6120    7.0320 H   0  0  0  0  0  0  0  0  0  0  0  0
   -5.1451   -1.8015    4.6414 H   0  0  0  0  0  0  0  0  0  0  0  0
   -6.7386   -2.3180    5.1484 H   0  0  0  0  0  0  0  0  0  0  0  0
   -6.7955   -0.4079    6.0954 H   0  0  0  0  0  0  0  0  0  0  0  0
   -6.4745   -1.8663    8.0503 H   0  0  0  0  0  0  0  0  0  0  0  0
   -6.2023   -0.1796    8.1809 H   0  0  0  0  0  0  0  0  0  0  0  0
  1  2  1  0
  2  3  1  0
  3  4  1  0
  4  5  2  0
  5  6  1  0
  6  7  1  0
  7  8  2  0
  7  9  2  0
  7 10  1  0
 10 11  1  0
 11 12  2  0
 11 13  1  0
 13 14  2  0
 14 15  1  0
 15 16  2  0
 16 17  1  0
 17 18  2  0
 17 19  1  0
 19 20  1  0
 20 21  1  0
 21 22  1  0
 22 23  1  0
  6  2  2  0
 18 13  1  0
 23 16  1  0
  1 24  1  0
  1 25  1  0
  1 26  1  0
  3 27  1  0
  5 28  1  0
 10 29  1  0
 14 30  1  0
 15 31  1  0
 18 32  1  0
 19 33  1  0
 19 34  1  0
 20 35  1  0
 20 36  1  0
 21 37  1  0
 21 38  1  0
 22 39  1  0
 23 40  1  0
 23 41  1  0
M  END
>  <Energy>  (92) 
1269.4639386157935

>  <compound_id>  (92) 
50713

>  <target_id>  (92) 
1

>  <reference_id>  (92) 
146

>  <inspiration_ids>  (92) 
[127, 146]

>  <energy_score>  (92) 
1265.9265140292382

>  <distance_score>  (92) 
8.254385513571423

>  <path>  (92) 
/opt/xchem-fragalysis-2/maxwin/BulkDock/SCRATCH/511025/C50713-P146/C50713-P146.minimised.mol

>  <scratch_subdir>  (92) 
/opt/xchem-fragalysis-2/maxwin/BulkDock/SCRATCH/511025/C50713-P146

>  <fragmenstein_runtime>  (92) 
21.07205629348755

>  <fragmenstein_outcome>  (92) 
too moved

>  <fragmenstein_mode>  (92) 
expansion

>  <fragmenstein_error>  (92) 


$$$$
C50718-P127
     RDKit          3D

 48 50  0  0  0  0  0  0  0  0999 V2000
    6.6451    3.5525   16.7547 C   0  0  0  0  0  0  0  0  0  0  0  0
    7.4014    4.5014   15.8492 C   0  0  0  0  0  0  0  0  0  0  0  0
    6.4557    4.9823   14.7049 C   0  0  0  0  0  0  0  0  0  0  0  0
    8.8972    4.0185   15.3995 C   0  0  0  0  0  0  0  0  0  0  0  0
    9.8903    3.2942   16.3069 N   0  0  0  0  0  0  0  0  0  0  0  0
   11.2885    3.8138   16.1536 C   0  0  0  0  0  0  0  0  0  0  0  0
   12.4627    2.9998   16.6658 C   0  0  0  0  0  0  0  0  0  0  0  0
   12.7039    2.4108   17.9293 C   0  0  0  0  0  0  0  0  0  0  0  0
   13.8558    1.7291   17.9897 N   0  0  0  0  0  0  0  0  0  0  0  0
   14.4040    1.9250   16.7789 N   0  0  0  0  0  0  0  0  0  0  0  0
   15.6857    1.3352   16.4611 C   0  0  0  0  0  0  0  0  0  0  0  0
   13.6328    2.7089   15.9723 C   0  0  0  0  0  0  0  0  0  0  0  0
    9.7421    1.8272   16.3725 C   0  0  0  0  0  0  0  0  0  0  0  0
   10.5966    0.9041   15.5232 C   0  0  0  0  0  0  0  0  0  0  0  0
   11.0087   -0.3751   15.8749 C   0  0  0  0  0  0  0  0  0  0  0  0
   11.9841   -0.9106   14.9858 C   0  0  0  0  0  0  0  0  0  0  0  0
   12.2910    0.0110   14.0068 C   0  0  0  0  0  0  0  0  0  0  0  0
   11.1952    1.3032   13.9578 S   0  0  0  0  0  0  0  0  0  0  0  0
   13.4436   -0.1288   13.0682 C   0  0  0  0  0  0  0  0  0  0  0  0
   14.2742   -1.3664   13.4681 C   0  0  0  0  0  0  0  0  0  0  0  0
   13.4314   -2.5016   13.8767 N   0  0  0  0  0  0  0  0  0  0  0  0
   12.7104   -2.2135   15.1235 C   0  0  0  0  0  0  0  0  0  0  0  0
    6.7842    2.5334   16.4176 H   0  0  0  0  0  0  0  0  0  0  0  0
    5.5831    3.8017   16.8329 H   0  0  0  0  0  0  0  0  0  0  0  0
    7.0635    3.5958   17.7672 H   0  0  0  0  0  0  0  0  0  0  0  0
    7.5921    5.3999   16.4552 H   0  0  0  0  0  0  0  0  0  0  0  0
    7.0195    5.5846   13.9855 H   0  0  0  0  0  0  0  0  0  0  0  0
    5.6662    5.6177   15.1225 H   0  0  0  0  0  0  0  0  0  0  0  0
    5.9618    4.1760   14.1663 H   0  0  0  0  0  0  0  0  0  0  0  0
    9.3743    4.9714   15.1253 H   0  0  0  0  0  0  0  0  0  0  0  0
    8.8419    3.4871   14.4485 H   0  0  0  0  0  0  0  0  0  0  0  0
   11.4741    4.0261   15.0922 H   0  0  0  0  0  0  0  0  0  0  0  0
   11.3257    4.7849   16.6642 H   0  0  0  0  0  0  0  0  0  0  0  0
   12.0699    2.4439   18.8055 H   0  0  0  0  0  0  0  0  0  0  0  0
   15.6074    0.2536   16.5960 H   0  0  0  0  0  0  0  0  0  0  0  0
   16.4333    1.7571   17.1370 H   0  0  0  0  0  0  0  0  0  0  0  0
   15.9417    1.5649   15.4239 H   0  0  0  0  0  0  0  0  0  0  0  0
   13.9477    2.9698   14.9717 H   0  0  0  0  0  0  0  0  0  0  0  0
    8.6955    1.5435   16.2396 H   0  0  0  0  0  0  0  0  0  0  0  0
    9.9421    1.5614   17.4190 H   0  0  0  0  0  0  0  0  0  0  0  0
   10.7025   -0.8637   16.7869 H   0  0  0  0  0  0  0  0  0  0  0  0
   14.0833    0.7604   13.1163 H   0  0  0  0  0  0  0  0  0  0  0  0
   13.0883   -0.2117   12.0394 H   0  0  0  0  0  0  0  0  0  0  0  0
   14.9587   -1.1088   14.2872 H   0  0  0  0  0  0  0  0  0  0  0  0
   14.9081   -1.6583   12.6267 H   0  0  0  0  0  0  0  0  0  0  0  0
   14.0001   -3.3354   13.9934 H   0  0  0  0  0  0  0  0  0  0  0  0
   13.4078   -2.1667   15.9680 H   0  0  0  0  0  0  0  0  0  0  0  0
   11.9955   -3.0204   15.3172 H   0  0  0  0  0  0  0  0  0  0  0  0
  1  2  1  0
  2  3  1  0
  2  4  1  0
  4  5  1  0
  5  6  1  0
  6  7  1  0
  7  8  1  0
  8  9  2  0
  9 10  1  0
 10 11  1  0
 10 12  1  0
  5 13  1  0
 13 14  1  0
 14 15  2  0
 15 16  1  0
 16 17  2  0
 17 18  1  0
 17 19  1  0
 19 20  1  0
 20 21  1  0
 21 22  1  0
 12  7  2  0
 18 14  1  0
 22 16  1  0
  1 23  1  0
  1 24  1  0
  1 25  1  0
  2 26  1  0
  3 27  1  0
  3 28  1  0
  3 29  1  0
  4 30  1  0
  4 31  1  0
  6 32  1  0
  6 33  1  0
  8 34  1  0
 11 35  1  0
 11 36  1  0
 11 37  1  0
 12 38  1  0
 13 39  1  0
 13 40  1  0
 15 41  1  0
 19 42  1  0
 19 43  1  0
 20 44  1  0
 20 45  1  0
 21 46  1  0
 22 47  1  0
 22 48  1  0
M  END
>  <Energy>  (93) 
70.236268631641835

>  <compound_id>  (93) 
50718

>  <target_id>  (93) 
1

>  <reference_id>  (93) 
127

>  <inspiration_ids>  (93) 
[127, 146]

>  <energy_score>  (93) 
-44.075214457620234

>  <distance_score>  (93) 
12.16553998666926

>  <path>  (93) 
/opt/xchem-fragalysis-2/maxwin/BulkDock/SCRATCH/511025/C50718-P127/C50718-P127.minimised.mol

>  <scratch_subdir>  (93) 
/opt/xchem-fragalysis-2/maxwin/BulkDock/SCRATCH/511025/C50718-P127

>  <fragmenstein_runtime>  (93) 
15.707408428192139

>  <fragmenstein_outcome>  (93) 
too moved

>  <fragmenstein_mode>  (93) 
expansion

>  <fragmenstein_error>  (93) 


$$$$
C50718-P146
     RDKit          3D

 48 50  0  0  0  0  0  0  0  0999 V2000
    3.7093   -4.7931   13.8733 C   0  0  0  0  0  0  0  0  0  0  0  0
    4.6322   -3.6308   13.3116 C   0  0  0  0  0  0  0  0  0  0  0  0
    4.6011   -3.6357   11.7438 C   0  0  0  0  0  0  0  0  0  0  0  0
    5.9564   -2.7505   14.4393 C   0  0  0  0  0  0  0  0  0  0  0  0
    7.3173   -1.5368   14.5585 N   0  0  0  0  0  0  0  0  0  0  0  0
    8.5502   -2.3957   14.5129 C   0  0  0  0  0  0  0  0  0  0  0  0
   10.0130   -1.8833   14.6810 C   0  0  0  0  0  0  0  0  0  0  0  0
   10.5987   -0.6349   14.3306 C   0  0  0  0  0  0  0  0  0  0  0  0
   11.9170   -0.5733   14.5298 N   0  0  0  0  0  0  0  0  0  0  0  0
   12.2251   -1.7861   14.9978 N   0  0  0  0  0  0  0  0  0  0  0  0
   13.6098   -2.0917   15.2846 C   0  0  0  0  0  0  0  0  0  0  0  0
   11.1300   -2.6025   15.1109 C   0  0  0  0  0  0  0  0  0  0  0  0
    7.6778   -0.7510   15.8870 C   0  0  0  0  0  0  0  0  0  0  0  0
    8.4202    0.6025   16.1258 C   0  0  0  0  0  0  0  0  0  0  0  0
    8.2676    1.9464   15.8204 C   0  0  0  0  0  0  0  0  0  0  0  0
    9.4561    2.6760   16.0131 C   0  0  0  0  0  0  0  0  0  0  0  0
    9.8665    2.3070   17.2640 C   0  0  0  0  0  0  0  0  0  0  0  0
    9.1486    0.8359   17.7062 S   0  0  0  0  0  0  0  0  0  0  0  0
   10.6284    3.2381   18.1440 C   0  0  0  0  0  0  0  0  0  0  0  0
   11.2905    4.3308   17.2754 C   0  0  0  0  0  0  0  0  0  0  0  0
   10.3445    4.9171   16.3036 N   0  0  0  0  0  0  0  0  0  0  0  0
    9.9232    3.9099   15.3209 C   0  0  0  0  0  0  0  0  0  0  0  0
    3.9291   -4.9797   14.9274 H   0  0  0  0  0  0  0  0  0  0  0  0
    2.6438   -4.5459   13.7921 H   0  0  0  0  0  0  0  0  0  0  0  0
    3.8229   -5.7215   13.3009 H   0  0  0  0  0  0  0  0  0  0  0  0
    3.7813   -3.0107   13.3794 H   0  0  0  0  0  0  0  0  0  0  0  0
    4.8704   -4.6130   11.3385 H   0  0  0  0  0  0  0  0  0  0  0  0
    5.2457   -2.8643   11.3115 H   0  0  0  0  0  0  0  0  0  0  0  0
    3.5876   -3.4546   11.3675 H   0  0  0  0  0  0  0  0  0  0  0  0
    5.2556   -2.3081   15.1041 H   0  0  0  0  0  0  0  0  0  0  0  0
    6.2448   -3.5203   15.0805 H   0  0  0  0  0  0  0  0  0  0  0  0
    8.4182   -3.2717   15.1354 H   0  0  0  0  0  0  0  0  0  0  0  0
    8.3458   -2.7246   13.5450 H   0  0  0  0  0  0  0  0  0  0  0  0
   10.1047    0.2261   13.9013 H   0  0  0  0  0  0  0  0  0  0  0  0
   14.1332   -2.2142   14.3336 H   0  0  0  0  0  0  0  0  0  0  0  0
   13.6555   -3.0125   15.8707 H   0  0  0  0  0  0  0  0  0  0  0  0
   14.0396   -1.2659   15.8566 H   0  0  0  0  0  0  0  0  0  0  0  0
   11.2331   -3.6263   15.4429 H   0  0  0  0  0  0  0  0  0  0  0  0
    8.4356   -1.3764   16.3232 H   0  0  0  0  0  0  0  0  0  0  0  0
    6.8354   -0.6794   16.5430 H   0  0  0  0  0  0  0  0  0  0  0  0
    7.3942    2.4213   15.4194 H   0  0  0  0  0  0  0  0  0  0  0  0
    9.9128    3.7213   18.8235 H   0  0  0  0  0  0  0  0  0  0  0  0
   11.3595    2.7514   18.7806 H   0  0  0  0  0  0  0  0  0  0  0  0
   11.6578    5.1290   17.9302 H   0  0  0  0  0  0  0  0  0  0  0  0
   12.1615    3.9466   16.7367 H   0  0  0  0  0  0  0  0  0  0  0  0
    9.5119    5.2236   16.8073 H   0  0  0  0  0  0  0  0  0  0  0  0
    9.1270    4.3316   14.6977 H   0  0  0  0  0  0  0  0  0  0  0  0
   10.7585    3.6648   14.6546 H   0  0  0  0  0  0  0  0  0  0  0  0
  1  2  1  0
  2  3  1  0
  2  4  1  0
  4  5  1  0
  5  6  1  0
  6  7  1  0
  7  8  1  0
  8  9  2  0
  9 10  1  0
 10 11  1  0
 10 12  1  0
  5 13  1  0
 13 14  1  0
 14 15  2  0
 15 16  1  0
 16 17  2  0
 17 18  1  0
 17 19  1  0
 19 20  1  0
 20 21  1  0
 21 22  1  0
 12  7  2  0
 18 14  1  0
 22 16  1  0
  1 23  1  0
  1 24  1  0
  1 25  1  0
  2 26  1  0
  3 27  1  0
  3 28  1  0
  3 29  1  0
  4 30  1  0
  4 31  1  0
  6 32  1  0
  6 33  1  0
  8 34  1  0
 11 35  1  0
 11 36  1  0
 11 37  1  0
 12 38  1  0
 13 39  1  0
 13 40  1  0
 15 41  1  0
 19 42  1  0
 19 43  1  0
 20 44  1  0
 20 45  1  0
 21 46  1  0
 22 47  1  0
 22 48  1  0
M  END
>  <Energy>  (94) 
255.79085691577859

>  <compound_id>  (94) 
50718

>  <target_id>  (94) 
1

>  <reference_id>  (94) 
146

>  <inspiration_ids>  (94) 
[127, 146]

>  <energy_score>  (94) 
141.47937382652015

>  <distance_score>  (94) 
11.480905225468039

>  <path>  (94) 
/opt/xchem-fragalysis-2/maxwin/BulkDock/SCRATCH/511025/C50718-P146/C50718-P146.minimised.mol

>  <scratch_subdir>  (94) 
/opt/xchem-fragalysis-2/maxwin/BulkDock/SCRATCH/511025/C50718-P146

>  <fragmenstein_runtime>  (94) 
17.472143411636353

>  <fragmenstein_outcome>  (94) 
too moved

>  <fragmenstein_mode>  (94) 
expansion

>  <fragmenstein_error>  (94) 


$$$$
C50727-P127
     RDKit          3D

 40 42  0  0  0  0  0  0  0  0999 V2000
   -8.4071    1.6175    8.0662 N   0  0  0  0  0  0  0  0  0  0  0  0
   -7.8375    2.7724    6.9830 S   0  0  0  0  0  0  0  0  0  0  0  0
   -8.1509    2.2978    5.6573 O   0  0  0  0  0  0  0  0  0  0  0  0
   -8.2737    4.0515    7.4899 O   0  0  0  0  0  0  0  0  0  0  0  0
   -6.1301    2.8008    7.0746 C   0  0  0  0  0  0  0  0  0  0  0  0
   -5.2976    1.7694    6.6319 C   0  0  0  0  0  0  0  0  0  0  0  0
   -4.0184    1.9766    6.9594 N   0  0  0  0  0  0  0  0  0  0  0  0
   -4.0159    3.1834    7.5866 N   0  0  0  0  0  0  0  0  0  0  0  0
   -2.9038    3.4900    8.4976 C   0  0  0  0  0  0  0  0  0  0  0  0
   -1.8931    4.5607    8.0940 C   0  0  0  0  0  0  0  0  0  0  0  0
   -2.0560    5.2360    7.1190 O   0  0  0  0  0  0  0  0  0  0  0  0
   -0.8280    4.5742    9.0944 N   0  0  0  0  0  0  0  0  0  0  0  0
    0.3033    5.4673    9.2668 C   0  0  0  0  0  0  0  0  0  0  0  0
    1.3756    4.8757   10.1698 C   0  0  0  0  0  0  0  0  0  0  0  0
    1.2532    4.9490   11.5830 C   0  0  0  0  0  0  0  0  0  0  0  0
    2.1290    4.2762   12.4329 C   0  0  0  0  0  0  0  0  0  0  0  0
    3.1040    3.5205   11.8358 C   0  0  0  0  0  0  0  0  0  0  0  0
    3.3005    3.5128   10.4555 C   0  0  0  0  0  0  0  0  0  0  0  0
    2.4530    4.1807    9.6054 C   0  0  0  0  0  0  0  0  0  0  0  0
    4.4121    2.5855   10.1438 C   0  0  0  0  0  0  0  0  0  0  0  0
    4.3433    1.6468   11.2786 N   0  0  0  0  0  0  0  0  0  0  0  0
    3.9894    2.5049   12.4429 C   0  0  0  0  0  0  0  0  0  0  0  0
   -5.2793    3.7350    7.6373 C   0  0  0  0  0  0  0  0  0  0  0  0
   -9.2399    1.1713    7.6788 H   0  0  0  0  0  0  0  0  0  0  0  0
   -8.5972    2.0679    8.9651 H   0  0  0  0  0  0  0  0  0  0  0  0
   -5.5686    0.8556    6.1177 H   0  0  0  0  0  0  0  0  0  0  0  0
   -2.3718    2.5474    8.6663 H   0  0  0  0  0  0  0  0  0  0  0  0
   -3.3656    3.8278    9.4278 H   0  0  0  0  0  0  0  0  0  0  0  0
   -0.9687    3.8034    9.7407 H   0  0  0  0  0  0  0  0  0  0  0  0
    0.7046    5.7105    8.2769 H   0  0  0  0  0  0  0  0  0  0  0  0
   -0.0757    6.4026    9.6934 H   0  0  0  0  0  0  0  0  0  0  0  0
    0.4231    5.5031   12.0190 H   0  0  0  0  0  0  0  0  0  0  0  0
    1.9888    4.2815   13.5083 H   0  0  0  0  0  0  0  0  0  0  0  0
    2.5694    4.1051    8.5285 H   0  0  0  0  0  0  0  0  0  0  0  0
    5.3606    3.1322   10.1351 H   0  0  0  0  0  0  0  0  0  0  0  0
    4.2836    2.0900    9.1812 H   0  0  0  0  0  0  0  0  0  0  0  0
    3.5212    1.0654   11.1222 H   0  0  0  0  0  0  0  0  0  0  0  0
    3.4441    1.9155   13.1816 H   0  0  0  0  0  0  0  0  0  0  0  0
    4.8586    3.0007   12.8790 H   0  0  0  0  0  0  0  0  0  0  0  0
   -5.4713    4.6742    8.1381 H   0  0  0  0  0  0  0  0  0  0  0  0
  1  2  1  0
  2  3  2  0
  2  4  2  0
  2  5  1  0
  5  6  1  0
  6  7  2  0
  7  8  1  0
  8  9  1  0
  9 10  1  0
 10 11  2  0
 10 12  1  0
 12 13  1  0
 13 14  1  0
 14 15  2  0
 15 16  1  0
 16 17  2  0
 17 18  1  0
 18 19  2  0
 18 20  1  0
 20 21  1  0
 21 22  1  0
  8 23  1  0
 23  5  2  0
 19 14  1  0
 22 17  1  0
  1 24  1  0
  1 25  1  0
  6 26  1  0
  9 27  1  0
  9 28  1  0
 12 29  1  0
 13 30  1  0
 13 31  1  0
 15 32  1  0
 16 33  1  0
 19 34  1  0
 20 35  1  0
 20 36  1  0
 21 37  1  0
 22 38  1  0
 22 39  1  0
 23 40  1  0
M  END
>  <Energy>  (95) 
-33.311902506740765

>  <compound_id>  (95) 
50727

>  <target_id>  (95) 
1

>  <reference_id>  (95) 
127

>  <inspiration_ids>  (95) 
[127, 146]

>  <energy_score>  (95) 
-19.679843843339768

>  <distance_score>  (95) 
11.631968004277839

>  <path>  (95) 
/opt/xchem-fragalysis-2/maxwin/BulkDock/SCRATCH/511025/C50727-P127/C50727-P127.minimised.mol

>  <scratch_subdir>  (95) 
/opt/xchem-fragalysis-2/maxwin/BulkDock/SCRATCH/511025/C50727-P127

>  <fragmenstein_runtime>  (95) 
20.785794258117676

>  <fragmenstein_outcome>  (95) 
too moved

>  <fragmenstein_mode>  (95) 
expansion

>  <fragmenstein_error>  (95) 


$$$$
C50727-P146
     RDKit          3D

 40 42  0  0  0  0  0  0  0  0999 V2000
   -3.8751    2.1597   14.9315 N   0  0  0  0  0  0  0  0  0  0  0  0
   -2.8599    3.5051   15.0771 S   0  0  0  0  0  0  0  0  0  0  0  0
   -3.3679    4.5251   14.1924 O   0  0  0  0  0  0  0  0  0  0  0  0
   -2.7045    3.7111   16.4990 O   0  0  0  0  0  0  0  0  0  0  0  0
   -1.2939    3.1046   14.5102 C   0  0  0  0  0  0  0  0  0  0  0  0
   -0.7092    3.5616   13.3256 C   0  0  0  0  0  0  0  0  0  0  0  0
    0.4566    2.9492   13.0760 N   0  0  0  0  0  0  0  0  0  0  0  0
    0.5227    1.9302   14.0023 N   0  0  0  0  0  0  0  0  0  0  0  0
    0.4960    0.5321   13.5359 C   0  0  0  0  0  0  0  0  0  0  0  0
    1.6093   -0.3115   12.8705 C   0  0  0  0  0  0  0  0  0  0  0  0
    2.4344    0.1787   12.1368 O   0  0  0  0  0  0  0  0  0  0  0  0
    1.4795   -1.7616   13.4211 N   0  0  0  0  0  0  0  0  0  0  0  0
    2.6285   -3.2647   13.2608 C   0  0  0  0  0  0  0  0  0  0  0  0
    4.0791   -3.0992   13.3344 C   0  0  0  0  0  0  0  0  0  0  0  0
    5.1643   -2.8709   14.7686 C   0  0  0  0  0  0  0  0  0  0  0  0
    6.5646   -2.7684   14.8265 C   0  0  0  0  0  0  0  0  0  0  0  0
    7.1132   -2.0683   13.9297 C   0  0  0  0  0  0  0  0  0  0  0  0
    6.4238   -2.1284   12.7443 C   0  0  0  0  0  0  0  0  0  0  0  0
    5.0054   -3.1096   12.3179 C   0  0  0  0  0  0  0  0  0  0  0  0
    7.0180   -1.0963   12.0433 C   0  0  0  0  0  0  0  0  0  0  0  0
    8.0069   -0.3659   13.1508 N   0  0  0  0  0  0  0  0  0  0  0  0
    8.2706   -1.2656   14.2388 C   0  0  0  0  0  0  0  0  0  0  0  0
   -0.3298    2.2792   15.0759 C   0  0  0  0  0  0  0  0  0  0  0  0
   -3.5161    1.4587   15.5960 H   0  0  0  0  0  0  0  0  0  0  0  0
   -4.8227    2.4514   15.1697 H   0  0  0  0  0  0  0  0  0  0  0  0
   -1.0754    4.2989   12.6221 H   0  0  0  0  0  0  0  0  0  0  0  0
   -0.4705    0.9087   13.0945 H   0  0  0  0  0  0  0  0  0  0  0  0
   -0.1711   -0.2136   13.0510 H   0  0  0  0  0  0  0  0  0  0  0  0
    0.6161   -1.8478   13.9457 H   0  0  0  0  0  0  0  0  0  0  0  0
    2.2573   -3.9458   14.0287 H   0  0  0  0  0  0  0  0  0  0  0  0
    2.5708   -3.9095   12.3575 H   0  0  0  0  0  0  0  0  0  0  0  0
    4.7517   -3.2684   15.7245 H   0  0  0  0  0  0  0  0  0  0  0  0
    7.3531   -3.0037   15.5012 H   0  0  0  0  0  0  0  0  0  0  0  0
    4.6847   -3.5250   11.3717 H   0  0  0  0  0  0  0  0  0  0  0  0
    7.4216   -1.3164   11.0705 H   0  0  0  0  0  0  0  0  0  0  0  0
    6.0887   -0.5407   11.8569 H   0  0  0  0  0  0  0  0  0  0  0  0
    8.8816   -0.2829   12.6201 H   0  0  0  0  0  0  0  0  0  0  0  0
    9.2100   -1.8293   14.2956 H   0  0  0  0  0  0  0  0  0  0  0  0
    8.2036   -0.7449   15.2041 H   0  0  0  0  0  0  0  0  0  0  0  0
   -0.3184    1.7055   15.9907 H   0  0  0  0  0  0  0  0  0  0  0  0
  1  2  1  0
  2  3  2  0
  2  4  2  0
  2  5  1  0
  5  6  1  0
  6  7  2  0
  7  8  1  0
  8  9  1  0
  9 10  1  0
 10 11  2  0
 10 12  1  0
 12 13  1  0
 13 14  1  0
 14 15  2  0
 15 16  1  0
 16 17  2  0
 17 18  1  0
 18 19  2  0
 18 20  1  0
 20 21  1  0
 21 22  1  0
  8 23  1  0
 23  5  2  0
 19 14  1  0
 22 17  1  0
  1 24  1  0
  1 25  1  0
  6 26  1  0
  9 27  1  0
  9 28  1  0
 12 29  1  0
 13 30  1  0
 13 31  1  0
 15 32  1  0
 16 33  1  0
 19 34  1  0
 20 35  1  0
 20 36  1  0
 21 37  1  0
 22 38  1  0
 22 39  1  0
 23 40  1  0
M  END
>  <Energy>  (96) 
340.92916619948011

>  <compound_id>  (96) 
50727

>  <target_id>  (96) 
1

>  <reference_id>  (96) 
146

>  <inspiration_ids>  (96) 
[127, 146]

>  <energy_score>  (96) 
354.5612248628846

>  <distance_score>  (96) 
10.926120754719426

>  <path>  (96) 
/opt/xchem-fragalysis-2/maxwin/BulkDock/SCRATCH/511025/C50727-P146/C50727-P146.minimised.mol

>  <scratch_subdir>  (96) 
/opt/xchem-fragalysis-2/maxwin/BulkDock/SCRATCH/511025/C50727-P146

>  <fragmenstein_runtime>  (96) 
20.0504310131073

>  <fragmenstein_outcome>  (96) 
too moved

>  <fragmenstein_mode>  (96) 
expansion

>  <fragmenstein_error>  (96) 


$$$$
C50729-P127
     RDKit          3D

 42 44  0  0  0  0  0  0  0  0999 V2000
   -0.4716   -0.6189   11.5899 O   0  0  0  0  0  0  0  0  0  0  0  0
   -0.0597   -1.0401   10.4848 C   0  0  0  0  0  0  0  0  0  0  0  0
    1.6228   -1.7046   10.1733 N   0  0  0  0  0  0  0  0  0  0  0  0
    3.2175   -2.1094   11.4526 C   0  0  0  0  0  0  0  0  0  0  0  0
    5.0128   -2.7724   12.3443 C   0  0  0  0  0  0  0  0  0  0  0  0
    5.6495   -3.0312   13.9806 C   0  0  0  0  0  0  0  0  0  0  0  0
    6.8290   -2.8978   14.9512 C   0  0  0  0  0  0  0  0  0  0  0  0
    7.7920   -2.0123   14.9528 C   0  0  0  0  0  0  0  0  0  0  0  0
    7.6573   -1.4020   13.7846 C   0  0  0  0  0  0  0  0  0  0  0  0
    6.4529   -1.7658   12.5812 C   0  0  0  0  0  0  0  0  0  0  0  0
    9.1705   -0.5193   13.9347 C   0  0  0  0  0  0  0  0  0  0  0  0
    9.4040   -0.3301   15.3826 N   0  0  0  0  0  0  0  0  0  0  0  0
    8.9039   -1.6204   15.8318 C   0  0  0  0  0  0  0  0  0  0  0  0
   -1.6384   -1.0918    9.0151 C   0  0  0  0  0  0  0  0  0  0  0  0
   -1.7920   -2.0965    8.4784 O   0  0  0  0  0  0  0  0  0  0  0  0
   -2.7745    0.1877    8.6804 N   0  0  0  0  0  0  0  0  0  0  0  0
   -3.9452    0.2204    7.9246 C   0  0  0  0  0  0  0  0  0  0  0  0
   -4.6063    1.3753    7.4306 C   0  0  0  0  0  0  0  0  0  0  0  0
   -5.8929    1.1691    7.1228 N   0  0  0  0  0  0  0  0  0  0  0  0
   -6.0920   -0.1231    7.4511 N   0  0  0  0  0  0  0  0  0  0  0  0
   -7.4514   -0.6615    7.4792 C   0  0  0  0  0  0  0  0  0  0  0  0
   -8.4807    0.2408    8.1604 C   0  0  0  0  0  0  0  0  0  0  0  0
   -9.6953   -0.3783    8.1894 F   0  0  0  0  0  0  0  0  0  0  0  0
   -4.9041   -0.7629    7.7657 C   0  0  0  0  0  0  0  0  0  0  0  0
    1.7196   -1.8920    9.1890 H   0  0  0  0  0  0  0  0  0  0  0  0
    3.0453   -3.1380   11.7353 H   0  0  0  0  0  0  0  0  0  0  0  0
    2.8388   -1.0645   11.7415 H   0  0  0  0  0  0  0  0  0  0  0  0
    4.8310   -3.1824   14.7359 H   0  0  0  0  0  0  0  0  0  0  0  0
    6.9459   -3.6527   15.6646 H   0  0  0  0  0  0  0  0  0  0  0  0
    6.8769   -1.3252   11.6725 H   0  0  0  0  0  0  0  0  0  0  0  0
   10.1072   -1.0995   13.8020 H   0  0  0  0  0  0  0  0  0  0  0  0
    9.3558    0.2668   13.2058 H   0  0  0  0  0  0  0  0  0  0  0  0
    8.8366    0.4350   15.7209 H   0  0  0  0  0  0  0  0  0  0  0  0
    9.7172   -2.3511   15.8082 H   0  0  0  0  0  0  0  0  0  0  0  0
    8.5635   -1.4419   16.8360 H   0  0  0  0  0  0  0  0  0  0  0  0
   -2.4694    0.9965    9.1379 H   0  0  0  0  0  0  0  0  0  0  0  0
   -4.2181    2.3828    7.3589 H   0  0  0  0  0  0  0  0  0  0  0  0
   -7.7367   -0.8438    6.4373 H   0  0  0  0  0  0  0  0  0  0  0  0
   -7.4130   -1.6334    7.9814 H   0  0  0  0  0  0  0  0  0  0  0  0
   -8.6047    1.1858    7.6230 H   0  0  0  0  0  0  0  0  0  0  0  0
   -8.1939    0.4672    9.1906 H   0  0  0  0  0  0  0  0  0  0  0  0
   -4.8915   -1.8140    7.9938 H   0  0  0  0  0  0  0  0  0  0  0  0
  1  2  2  0
  2  3  1  0
  3  4  1  0
  4  5  1  0
  5  6  2  0
  6  7  1  0
  7  8  2  0
  8  9  1  0
  9 10  2  0
  9 11  1  0
 11 12  1  0
 12 13  1  0
  2 14  1  0
 14 15  2  0
 14 16  1  0
 16 17  1  0
 17 18  1  0
 18 19  2  0
 19 20  1  0
 20 21  1  0
 21 22  1  0
 22 23  1  0
 20 24  1  0
 10  5  1  0
 24 17  2  0
 13  8  1  0
  3 25  1  0
  4 26  1  0
  4 27  1  0
  6 28  1  0
  7 29  1  0
 10 30  1  0
 11 31  1  0
 11 32  1  0
 12 33  1  0
 13 34  1  0
 13 35  1  0
 16 36  1  0
 18 37  1  0
 21 38  1  0
 21 39  1  0
 22 40  1  0
 22 41  1  0
 24 42  1  0
M  END
>  <Energy>  (97) 
900.20717176320568

>  <compound_id>  (97) 
50729

>  <target_id>  (97) 
1

>  <reference_id>  (97) 
127

>  <inspiration_ids>  (97) 
[127, 146]

>  <energy_score>  (97) 
799.2488308911848

>  <distance_score>  (97) 
7.477498828337712

>  <path>  (97) 
/opt/xchem-fragalysis-2/maxwin/BulkDock/SCRATCH/511025/C50729-P127/C50729-P127.minimised.mol

>  <scratch_subdir>  (97) 
/opt/xchem-fragalysis-2/maxwin/BulkDock/SCRATCH/511025/C50729-P127

>  <fragmenstein_runtime>  (97) 
14.719228029251099

>  <fragmenstein_outcome>  (97) 
too moved

>  <fragmenstein_mode>  (97) 
expansion

>  <fragmenstein_error>  (97) 


$$$$
C50729-P146
     RDKit          3D

 42 44  0  0  0  0  0  0  0  0999 V2000
    1.2727   -2.5698    8.8943 O   0  0  0  0  0  0  0  0  0  0  0  0
    1.2167   -2.0287    9.9993 C   0  0  0  0  0  0  0  0  0  0  0  0
    2.3094   -1.9782   11.2056 N   0  0  0  0  0  0  0  0  0  0  0  0
    3.9742   -2.8605   11.4143 C   0  0  0  0  0  0  0  0  0  0  0  0
    5.7331   -2.5118   12.2777 C   0  0  0  0  0  0  0  0  0  0  0  0
    6.6563   -1.4675   11.9629 C   0  0  0  0  0  0  0  0  0  0  0  0
    7.5484   -0.7687   12.8840 C   0  0  0  0  0  0  0  0  0  0  0  0
    7.9346   -0.9847   14.1302 C   0  0  0  0  0  0  0  0  0  0  0  0
    7.3958   -2.1171   14.4811 C   0  0  0  0  0  0  0  0  0  0  0  0
    6.2108   -2.6190   13.9253 C   0  0  0  0  0  0  0  0  0  0  0  0
    8.5306   -2.6680   15.1572 C   0  0  0  0  0  0  0  0  0  0  0  0
    9.7981   -1.8954   14.9968 N   0  0  0  0  0  0  0  0  0  0  0  0
    9.2335   -0.5759   14.7368 C   0  0  0  0  0  0  0  0  0  0  0  0
   -0.4202   -1.3068   10.4174 C   0  0  0  0  0  0  0  0  0  0  0  0
   -0.6104   -0.8642   11.5651 O   0  0  0  0  0  0  0  0  0  0  0  0
   -1.6337   -1.4956    8.9581 N   0  0  0  0  0  0  0  0  0  0  0  0
   -2.9717   -1.1053    8.7930 C   0  0  0  0  0  0  0  0  0  0  0  0
   -3.8390   -0.1389    9.1131 C   0  0  0  0  0  0  0  0  0  0  0  0
   -4.7510    0.1380    8.1675 N   0  0  0  0  0  0  0  0  0  0  0  0
   -4.8923   -1.0517    7.6034 N   0  0  0  0  0  0  0  0  0  0  0  0
   -6.1467   -1.4147    6.9572 C   0  0  0  0  0  0  0  0  0  0  0  0
   -7.4012   -0.7802    7.5724 C   0  0  0  0  0  0  0  0  0  0  0  0
   -8.5254   -1.2942    6.9937 F   0  0  0  0  0  0  0  0  0  0  0  0
   -3.7009   -1.7202    7.7424 C   0  0  0  0  0  0  0  0  0  0  0  0
    1.9621   -1.3594   11.9578 H   0  0  0  0  0  0  0  0  0  0  0  0
    3.9227   -3.7597   10.7811 H   0  0  0  0  0  0  0  0  0  0  0  0
    3.6384   -3.4238   12.3109 H   0  0  0  0  0  0  0  0  0  0  0  0
    6.7565   -0.9713   11.0100 H   0  0  0  0  0  0  0  0  0  0  0  0
    8.3174   -0.0804   12.4844 H   0  0  0  0  0  0  0  0  0  0  0  0
    5.5078   -2.9044   14.7046 H   0  0  0  0  0  0  0  0  0  0  0  0
    8.1850   -2.2734   16.0812 H   0  0  0  0  0  0  0  0  0  0  0  0
    8.6733   -3.7308   15.0957 H   0  0  0  0  0  0  0  0  0  0  0  0
   10.1654   -2.1925   14.0834 H   0  0  0  0  0  0  0  0  0  0  0  0
    9.0691   -0.0329   15.6746 H   0  0  0  0  0  0  0  0  0  0  0  0
    9.8782    0.0290   14.0919 H   0  0  0  0  0  0  0  0  0  0  0  0
   -1.2059   -1.9519    8.2024 H   0  0  0  0  0  0  0  0  0  0  0  0
   -3.7871    0.3603   10.0309 H   0  0  0  0  0  0  0  0  0  0  0  0
   -6.2253   -2.5063    6.9945 H   0  0  0  0  0  0  0  0  0  0  0  0
   -6.0556   -1.1265    5.9045 H   0  0  0  0  0  0  0  0  0  0  0  0
   -7.4163    0.3028    7.4173 H   0  0  0  0  0  0  0  0  0  0  0  0
   -7.4642   -0.9806    8.6398 H   0  0  0  0  0  0  0  0  0  0  0  0
   -3.4714   -2.5828    7.1330 H   0  0  0  0  0  0  0  0  0  0  0  0
  1  2  2  0
  2  3  1  0
  3  4  1  0
  4  5  1  0
  5  6  2  0
  6  7  1  0
  7  8  2  0
  8  9  1  0
  9 10  2  0
  9 11  1  0
 11 12  1  0
 12 13  1  0
  2 14  1  0
 14 15  2  0
 14 16  1  0
 16 17  1  0
 17 18  1  0
 18 19  2  0
 19 20  1  0
 20 21  1  0
 21 22  1  0
 22 23  1  0
 20 24  1  0
 10  5  1  0
 24 17  2  0
 13  8  1  0
  3 25  1  0
  4 26  1  0
  4 27  1  0
  6 28  1  0
  7 29  1  0
 10 30  1  0
 11 31  1  0
 11 32  1  0
 12 33  1  0
 13 34  1  0
 13 35  1  0
 16 36  1  0
 18 37  1  0
 21 38  1  0
 21 39  1  0
 22 40  1  0
 22 41  1  0
 24 42  1  0
M  END
>  <Energy>  (98) 
479.17183063429314

>  <compound_id>  (98) 
50729

>  <target_id>  (98) 
1

>  <reference_id>  (98) 
146

>  <inspiration_ids>  (98) 
[127, 146]

>  <energy_score>  (98) 
378.2134897622674

>  <distance_score>  (98) 
8.201636760337683

>  <path>  (98) 
/opt/xchem-fragalysis-2/maxwin/BulkDock/SCRATCH/511025/C50729-P146/C50729-P146.minimised.mol

>  <scratch_subdir>  (98) 
/opt/xchem-fragalysis-2/maxwin/BulkDock/SCRATCH/511025/C50729-P146

>  <fragmenstein_runtime>  (98) 
12.735417604446411

>  <fragmenstein_outcome>  (98) 
too moved

>  <fragmenstein_mode>  (98) 
expansion

>  <fragmenstein_error>  (98) 


$$$$
C52679-P53
     RDKit          3D

 37 37  0  0  0  0  0  0  0  0999 V2000
   -2.1722   -0.6263   28.3034 C   0  0  0  0  0  0  0  0  0  0  0  0
   -1.8949    0.0742   29.6226 C   0  0  0  0  0  0  0  0  0  0  0  0
   -1.4420   -0.6645   30.9254 C   0  0  0  0  0  0  0  0  0  0  0  0
   -2.4982   -0.6277   32.0297 C   0  0  0  0  0  0  0  0  0  0  0  0
   -0.8214   -2.3432   30.8397 S   0  0  0  0  0  0  0  0  0  0  0  0
    0.1286   -2.5519   31.9115 O   0  0  0  0  0  0  0  0  0  0  0  0
   -1.9618   -3.2223   30.7288 O   0  0  0  0  0  0  0  0  0  0  0  0
    0.0086   -2.3793   29.4078 N   0  0  0  0  0  0  0  0  0  0  0  0
    1.4643   -2.1694   29.3721 C   0  0  0  0  0  0  0  0  0  0  0  0
    2.0881   -3.3814   28.6782 C   0  0  0  0  0  0  0  0  0  0  0  0
    1.9079   -0.8514   28.7097 C   0  0  0  0  0  0  0  0  0  0  0  0
    1.3115   -0.4942   27.3620 C   0  0  0  0  0  0  0  0  0  0  0  0
    0.8876    0.9627   27.4367 C   0  0  0  0  0  0  0  0  0  0  0  0
    1.6577    1.4892   28.5558 N   0  0  0  0  0  0  0  0  0  0  0  0
    1.7343    0.4115   29.5361 C   0  0  0  0  0  0  0  0  0  0  0  0
   -2.6375    0.0695   27.5986 H   0  0  0  0  0  0  0  0  0  0  0  0
   -1.2763   -0.9843   27.8211 H   0  0  0  0  0  0  0  0  0  0  0  0
   -2.8206   -1.4904   28.4269 H   0  0  0  0  0  0  0  0  0  0  0  0
   -2.8220    0.5872   29.8743 H   0  0  0  0  0  0  0  0  0  0  0  0
   -1.1903    0.8882   29.4400 H   0  0  0  0  0  0  0  0  0  0  0  0
   -0.6074   -0.0950   31.3461 H   0  0  0  0  0  0  0  0  0  0  0  0
   -3.4354   -1.0822   31.7078 H   0  0  0  0  0  0  0  0  0  0  0  0
   -2.1637   -1.1760   32.9183 H   0  0  0  0  0  0  0  0  0  0  0  0
   -2.6885    0.3909   32.3588 H   0  0  0  0  0  0  0  0  0  0  0  0
   -0.4533   -2.8572   28.6286 H   0  0  0  0  0  0  0  0  0  0  0  0
    1.8749   -2.1580   30.3874 H   0  0  0  0  0  0  0  0  0  0  0  0
    1.7534   -3.4665   27.6435 H   0  0  0  0  0  0  0  0  0  0  0  0
    1.8099   -4.3082   29.1924 H   0  0  0  0  0  0  0  0  0  0  0  0
    3.1810   -3.3150   28.6773 H   0  0  0  0  0  0  0  0  0  0  0  0
    2.9942   -0.9462   28.5495 H   0  0  0  0  0  0  0  0  0  0  0  0
    2.1098   -0.5912   26.6179 H   0  0  0  0  0  0  0  0  0  0  0  0
    0.5020   -1.1530   27.0729 H   0  0  0  0  0  0  0  0  0  0  0  0
    1.1305    1.5127   26.5247 H   0  0  0  0  0  0  0  0  0  0  0  0
   -0.1832    1.0727   27.5997 H   0  0  0  0  0  0  0  0  0  0  0  0
    1.2149    2.3224   28.9417 H   0  0  0  0  0  0  0  0  0  0  0  0
    0.8379    0.3973   30.1379 H   0  0  0  0  0  0  0  0  0  0  0  0
    2.5797    0.5659   30.2144 H   0  0  0  0  0  0  0  0  0  0  0  0
  1  2  1  0
  2  3  1  0
  3  4  1  0
  3  5  1  0
  5  6  2  0
  5  7  2  0
  5  8  1  0
  8  9  1  0
  9 10  1  0
  9 11  1  0
 11 12  1  0
 12 13  1  0
 13 14  1  0
 14 15  1  0
 15 11  1  0
  1 16  1  0
  1 17  1  0
  1 18  1  0
  2 19  1  0
  2 20  1  0
  3 21  1  0
  4 22  1  0
  4 23  1  0
  4 24  1  0
  8 25  1  0
  9 26  1  0
 10 27  1  0
 10 28  1  0
 10 29  1  0
 11 30  1  0
 12 31  1  0
 12 32  1  0
 13 33  1  0
 13 34  1  0
 14 35  1  0
 15 36  1  0
 15 37  1  0
M  END
>  <Energy>  (99) 
-35.823670803318976

>  <compound_id>  (99) 
52679

>  <target_id>  (99) 
1

>  <reference_id>  (99) 
53

>  <inspiration_ids>  (99) 
[53, 13]

>  <energy_score>  (99) 
-45.12804382296278

>  <distance_score>  (99) 
2.211949292423833

>  <path>  (99) 
/opt/xchem-fragalysis-2/maxwin/BulkDock/SCRATCH/511025/C52679-P53/C52679-P53.minimised.mol

>  <scratch_subdir>  (99) 
/opt/xchem-fragalysis-2/maxwin/BulkDock/SCRATCH/511025/C52679-P53

>  <fragmenstein_runtime>  (99) 
28.56434416770935

>  <fragmenstein_outcome>  (99) 
too moved

>  <fragmenstein_mode>  (99) 
expansion

>  <fragmenstein_error>  (99) 


$$$$
C52679-P13
     RDKit          3D

 37 37  0  0  0  0  0  0  0  0999 V2000
   -0.1847    1.2361   30.7630 C   0  0  0  0  0  0  0  0  0  0  0  0
   -1.2063    0.1214   30.7014 C   0  0  0  0  0  0  0  0  0  0  0  0
   -1.0840   -0.8795   31.8592 C   0  0  0  0  0  0  0  0  0  0  0  0
   -2.1877   -0.6203   32.8743 C   0  0  0  0  0  0  0  0  0  0  0  0
   -1.0795   -2.6662   31.4050 S   0  0  0  0  0  0  0  0  0  0  0  0
    0.0654   -3.2811   32.0444 O   0  0  0  0  0  0  0  0  0  0  0  0
   -2.4011   -3.2319   31.5897 O   0  0  0  0  0  0  0  0  0  0  0  0
   -0.8066   -2.7749   29.7787 N   0  0  0  0  0  0  0  0  0  0  0  0
    0.3681   -2.1497   29.1747 C   0  0  0  0  0  0  0  0  0  0  0  0
    1.3895   -3.2354   28.8380 C   0  0  0  0  0  0  0  0  0  0  0  0
   -0.0357   -1.3235   27.9343 C   0  0  0  0  0  0  0  0  0  0  0  0
   -1.5143   -0.9549   27.6699 C   0  0  0  0  0  0  0  0  0  0  0  0
   -1.4935    0.4824   27.1867 C   0  0  0  0  0  0  0  0  0  0  0  0
   -0.2281    1.0459   27.6424 N   0  0  0  0  0  0  0  0  0  0  0  0
    0.7523   -0.0222   27.7696 C   0  0  0  0  0  0  0  0  0  0  0  0
    0.8316    0.8301   30.7213 H   0  0  0  0  0  0  0  0  0  0  0  0
   -0.2511    1.7763   31.7124 H   0  0  0  0  0  0  0  0  0  0  0  0
   -0.2793    1.9610   29.9552 H   0  0  0  0  0  0  0  0  0  0  0  0
   -2.2299    0.4751   30.6035 H   0  0  0  0  0  0  0  0  0  0  0  0
   -1.0011   -0.3703   29.7981 H   0  0  0  0  0  0  0  0  0  0  0  0
   -0.1128   -0.7402   32.3516 H   0  0  0  0  0  0  0  0  0  0  0  0
   -2.1349    0.4032   33.2585 H   0  0  0  0  0  0  0  0  0  0  0  0
   -2.0974   -1.2989   33.7296 H   0  0  0  0  0  0  0  0  0  0  0  0
   -3.1812   -0.7707   32.4379 H   0  0  0  0  0  0  0  0  0  0  0  0
   -1.5815   -3.0669   29.1750 H   0  0  0  0  0  0  0  0  0  0  0  0
    0.8618   -1.5051   29.9098 H   0  0  0  0  0  0  0  0  0  0  0  0
    0.9756   -3.9689   28.1426 H   0  0  0  0  0  0  0  0  0  0  0  0
    1.6962   -3.7778   29.7388 H   0  0  0  0  0  0  0  0  0  0  0  0
    2.2863   -2.8003   28.3850 H   0  0  0  0  0  0  0  0  0  0  0  0
    0.2655   -1.9499   27.1223 H   0  0  0  0  0  0  0  0  0  0  0  0
   -1.9769   -1.6043   26.9267 H   0  0  0  0  0  0  0  0  0  0  0  0
   -2.1841   -1.0559   28.5258 H   0  0  0  0  0  0  0  0  0  0  0  0
   -1.5818    0.5277   26.1030 H   0  0  0  0  0  0  0  0  0  0  0  0
   -2.3315    1.0534   27.5978 H   0  0  0  0  0  0  0  0  0  0  0  0
    0.0873    1.7965   27.0317 H   0  0  0  0  0  0  0  0  0  0  0  0
    1.4266    0.1821   28.6051 H   0  0  0  0  0  0  0  0  0  0  0  0
    1.3880   -0.0640   26.8831 H   0  0  0  0  0  0  0  0  0  0  0  0
  1  2  1  0
  2  3  1  0
  3  4  1  0
  3  5  1  0
  5  6  2  0
  5  7  2  0
  5  8  1  0
  8  9  1  0
  9 10  1  0
  9 11  1  0
 11 12  1  0
 12 13  1  0
 13 14  1  0
 14 15  1  0
 15 11  1  0
  1 16  1  0
  1 17  1  0
  1 18  1  0
  2 19  1  0
  2 20  1  0
  3 21  1  0
  4 22  1  0
  4 23  1  0
  4 24  1  0
  8 25  1  0
  9 26  1  0
 10 27  1  0
 10 28  1  0
 10 29  1  0
 11 30  1  0
 12 31  1  0
 12 32  1  0
 13 33  1  0
 13 34  1  0
 14 35  1  0
 15 36  1  0
 15 37  1  0
M  END
>  <Energy>  (100) 
-23.755116061953153

>  <compound_id>  (100) 
52679

>  <target_id>  (100) 
1

>  <reference_id>  (100) 
13

>  <inspiration_ids>  (100) 
[53, 13]

>  <energy_score>  (100) 
-33.059489081597036

>  <distance_score>  (100) 
2.693261069051513

>  <path>  (100) 
/opt/xchem-fragalysis-2/maxwin/BulkDock/SCRATCH/511025/C52679-P13/C52679-P13.minimised.mol

>  <scratch_subdir>  (100) 
/opt/xchem-fragalysis-2/maxwin/BulkDock/SCRATCH/511025/C52679-P13

>  <fragmenstein_runtime>  (100) 
30.62705707550049

>  <fragmenstein_outcome>  (100) 
too moved

>  <fragmenstein_mode>  (100) 
expansion

>  <fragmenstein_error>  (100) 


$$$$
C52688-P53
     RDKit          3D

 46 46  0  0  0  0  0  0  0  0999 V2000
   -0.7463   -1.5734   28.3707 C   0  0  0  0  0  0  0  0  0  0  0  0
   -1.4887   -0.4056   27.7315 C   0  0  0  0  0  0  0  0  0  0  0  0
   -0.5978    0.8361   27.5418 C   0  0  0  0  0  0  0  0  0  0  0  0
   -0.0529    1.3180   28.8967 C   0  0  0  0  0  0  0  0  0  0  0  0
   -1.3017    1.9619   26.7263 C   0  0  0  0  0  0  0  0  0  0  0  0
   -2.6320    2.4360   27.2837 C   0  0  0  0  0  0  0  0  0  0  0  0
   -0.3971    3.0857   26.6125 N   0  0  0  0  0  0  0  0  0  0  0  0
    0.5001    3.4610   25.5738 C   0  0  0  0  0  0  0  0  0  0  0  0
    0.6827    2.9913   24.4929 O   0  0  0  0  0  0  0  0  0  0  0  0
    1.4011    4.6227   26.0914 C   0  0  0  0  0  0  0  0  0  0  0  0
    0.8850    5.5249   26.6911 O   0  0  0  0  0  0  0  0  0  0  0  0
    2.7756    4.3518   25.8239 N   0  0  0  0  0  0  0  0  0  0  0  0
    3.3616    3.4724   26.9313 C   0  0  0  0  0  0  0  0  0  0  0  0
    4.0671    2.2388   26.3491 C   0  0  0  0  0  0  0  0  0  0  0  0
    4.0173    5.1700   26.1096 C   0  0  0  0  0  0  0  0  0  0  0  0
    4.1651    6.1399   24.9165 C   0  0  0  0  0  0  0  0  0  0  0  0
    5.0145    7.2881   25.4402 C   0  0  0  0  0  0  0  0  0  0  0  0
    5.0203    7.1860   26.9040 N   0  0  0  0  0  0  0  0  0  0  0  0
    3.9457    6.2380   27.2344 C   0  0  0  0  0  0  0  0  0  0  0  0
   -1.3774   -2.4638   28.3822 H   0  0  0  0  0  0  0  0  0  0  0  0
    0.1708   -1.8099   27.8239 H   0  0  0  0  0  0  0  0  0  0  0  0
   -0.4826   -1.3607   29.4109 H   0  0  0  0  0  0  0  0  0  0  0  0
   -1.8871   -0.7211   26.7614 H   0  0  0  0  0  0  0  0  0  0  0  0
   -2.3480   -0.1631   28.3647 H   0  0  0  0  0  0  0  0  0  0  0  0
    0.2805    0.5312   26.9561 H   0  0  0  0  0  0  0  0  0  0  0  0
   -0.8582    1.4488   29.6191 H   0  0  0  0  0  0  0  0  0  0  0  0
    0.6508    0.5903   29.3142 H   0  0  0  0  0  0  0  0  0  0  0  0
    0.4967    2.2598   28.8201 H   0  0  0  0  0  0  0  0  0  0  0  0
   -1.4774    1.5899   25.7117 H   0  0  0  0  0  0  0  0  0  0  0  0
   -2.5176    2.8181   28.3008 H   0  0  0  0  0  0  0  0  0  0  0  0
   -3.0348    3.2506   26.6724 H   0  0  0  0  0  0  0  0  0  0  0  0
   -3.3727    1.6344   27.2809 H   0  0  0  0  0  0  0  0  0  0  0  0
   -0.3361    3.7693   27.3668 H   0  0  0  0  0  0  0  0  0  0  0  0
    3.9113    3.8919   27.7858 H   0  0  0  0  0  0  0  0  0  0  0  0
    2.4867    3.0495   27.4501 H   0  0  0  0  0  0  0  0  0  0  0  0
    4.2857    1.5223   27.1474 H   0  0  0  0  0  0  0  0  0  0  0  0
    3.4313    1.7393   25.6107 H   0  0  0  0  0  0  0  0  0  0  0  0
    5.0119    2.4920   25.8622 H   0  0  0  0  0  0  0  0  0  0  0  0
    4.9750    4.6199   26.0986 H   0  0  0  0  0  0  0  0  0  0  0  0
    4.6211    5.6501   24.0499 H   0  0  0  0  0  0  0  0  0  0  0  0
    3.1871    6.5245   24.5978 H   0  0  0  0  0  0  0  0  0  0  0  0
    4.6052    8.2529   25.1234 H   0  0  0  0  0  0  0  0  0  0  0  0
    6.0396    7.2209   25.0599 H   0  0  0  0  0  0  0  0  0  0  0  0
    5.9146    6.7993   27.2055 H   0  0  0  0  0  0  0  0  0  0  0  0
    4.0960    5.8440   28.2428 H   0  0  0  0  0  0  0  0  0  0  0  0
    2.9901    6.7733   27.2329 H   0  0  0  0  0  0  0  0  0  0  0  0
  1  2  1  0
  2  3  1  0
  3  4  1  0
  3  5  1  0
  5  6  1  0
  5  7  1  0
  7  8  1  0
  8  9  2  0
  8 10  1  0
 10 11  2  0
 10 12  1  0
 12 13  1  0
 13 14  1  0
 12 15  1  0
 15 16  1  0
 16 17  1  0
 17 18  1  0
 18 19  1  0
 19 15  1  0
  1 20  1  0
  1 21  1  0
  1 22  1  0
  2 23  1  0
  2 24  1  0
  3 25  1  0
  4 26  1  0
  4 27  1  0
  4 28  1  0
  5 29  1  0
  6 30  1  0
  6 31  1  0
  6 32  1  0
  7 33  1  0
 13 34  1  0
 13 35  1  0
 14 36  1  0
 14 37  1  0
 14 38  1  0
 15 39  1  0
 16 40  1  0
 16 41  1  0
 17 42  1  0
 17 43  1  0
 18 44  1  0
 19 45  1  0
 19 46  1  0
M  END
>  <Energy>  (101) 
145.91897443072432

>  <compound_id>  (101) 
52688

>  <target_id>  (101) 
1

>  <reference_id>  (101) 
53

>  <inspiration_ids>  (101) 
[53, 13]

>  <energy_score>  (101) 
37.359194780188545

>  <distance_score>  (101) 
2.4586130509299595

>  <path>  (101) 
/opt/xchem-fragalysis-2/maxwin/BulkDock/SCRATCH/511025/C52688-P53/C52688-P53.minimised.mol

>  <scratch_subdir>  (101) 
/opt/xchem-fragalysis-2/maxwin/BulkDock/SCRATCH/511025/C52688-P53

>  <fragmenstein_runtime>  (101) 
4.868573427200317

>  <fragmenstein_outcome>  (101) 
too moved

>  <fragmenstein_mode>  (101) 
expansion

>  <fragmenstein_error>  (101) 


$$$$
C52688-P13
     RDKit          3D

 46 46  0  0  0  0  0  0  0  0999 V2000
    1.2666   -0.9557   29.1075 C   0  0  0  0  0  0  0  0  0  0  0  0
   -0.0412   -1.4743   28.5335 C   0  0  0  0  0  0  0  0  0  0  0  0
   -1.2276   -0.4915   28.4975 C   0  0  0  0  0  0  0  0  0  0  0  0
   -1.6022   -0.0714   29.9142 C   0  0  0  0  0  0  0  0  0  0  0  0
   -1.0471    0.6764   27.4989 C   0  0  0  0  0  0  0  0  0  0  0  0
   -2.3196    1.4718   27.2228 C   0  0  0  0  0  0  0  0  0  0  0  0
    0.0118    1.6047   27.8121 N   0  0  0  0  0  0  0  0  0  0  0  0
    0.6714    2.5767   27.0045 C   0  0  0  0  0  0  0  0  0  0  0  0
    0.5731    2.8205   25.8395 O   0  0  0  0  0  0  0  0  0  0  0  0
    1.7023    3.3791   27.8619 C   0  0  0  0  0  0  0  0  0  0  0  0
    1.5639    3.3698   29.0566 O   0  0  0  0  0  0  0  0  0  0  0  0
    2.6222    4.0929   27.0399 N   0  0  0  0  0  0  0  0  0  0  0  0
    3.8880    3.2539   26.8178 C   0  0  0  0  0  0  0  0  0  0  0  0
    3.5953    2.0775   25.8670 C   0  0  0  0  0  0  0  0  0  0  0  0
    3.6313    5.1411   27.3876 C   0  0  0  0  0  0  0  0  0  0  0  0
    4.6544    5.1328   28.5401 C   0  0  0  0  0  0  0  0  0  0  0  0
    5.4710    6.3789   28.2188 C   0  0  0  0  0  0  0  0  0  0  0  0
    5.5732    6.3667   26.7555 N   0  0  0  0  0  0  0  0  0  0  0  0
    4.2374    6.0075   26.2551 C   0  0  0  0  0  0  0  0  0  0  0  0
    1.1375   -0.5300   30.1061 H   0  0  0  0  0  0  0  0  0  0  0  0
    1.9826   -1.7805   29.1924 H   0  0  0  0  0  0  0  0  0  0  0  0
    1.7256   -0.2053   28.4594 H   0  0  0  0  0  0  0  0  0  0  0  0
    0.1537   -1.8369   27.5259 H   0  0  0  0  0  0  0  0  0  0  0  0
   -0.3400   -2.3565   29.1149 H   0  0  0  0  0  0  0  0  0  0  0  0
   -2.0758   -1.0823   28.1207 H   0  0  0  0  0  0  0  0  0  0  0  0
   -2.5853    0.3952   29.9177 H   0  0  0  0  0  0  0  0  0  0  0  0
   -1.6662   -0.9411   30.5774 H   0  0  0  0  0  0  0  0  0  0  0  0
   -0.8801    0.6261   30.3463 H   0  0  0  0  0  0  0  0  0  0  0  0
   -0.7656    0.2368   26.5443 H   0  0  0  0  0  0  0  0  0  0  0  0
   -2.6591    1.9958   28.1165 H   0  0  0  0  0  0  0  0  0  0  0  0
   -2.1524    2.2312   26.4503 H   0  0  0  0  0  0  0  0  0  0  0  0
   -3.1115    0.8214   26.8568 H   0  0  0  0  0  0  0  0  0  0  0  0
    0.2846    1.7414   28.7831 H   0  0  0  0  0  0  0  0  0  0  0  0
    4.1758    2.7729   27.7648 H   0  0  0  0  0  0  0  0  0  0  0  0
    4.7577    3.7134   26.3285 H   0  0  0  0  0  0  0  0  0  0  0  0
    4.5232    1.5419   25.6415 H   0  0  0  0  0  0  0  0  0  0  0  0
    2.9152    1.3508   26.3185 H   0  0  0  0  0  0  0  0  0  0  0  0
    3.1665    2.4317   24.9244 H   0  0  0  0  0  0  0  0  0  0  0  0
    2.9020    5.8552   27.8162 H   0  0  0  0  0  0  0  0  0  0  0  0
    4.1731    5.1937   29.5216 H   0  0  0  0  0  0  0  0  0  0  0  0
    5.3258    4.2689   28.5496 H   0  0  0  0  0  0  0  0  0  0  0  0
    6.4589    6.3491   28.6870 H   0  0  0  0  0  0  0  0  0  0  0  0
    4.9529    7.2839   28.5579 H   0  0  0  0  0  0  0  0  0  0  0  0
    5.8479    7.2849   26.4073 H   0  0  0  0  0  0  0  0  0  0  0  0
    3.6326    6.9098   26.1014 H   0  0  0  0  0  0  0  0  0  0  0  0
    4.3102    5.4967   25.2901 H   0  0  0  0  0  0  0  0  0  0  0  0
  1  2  1  0
  2  3  1  0
  3  4  1  0
  3  5  1  0
  5  6  1  0
  5  7  1  0
  7  8  1  0
  8  9  2  0
  8 10  1  0
 10 11  2  0
 10 12  1  0
 12 13  1  0
 13 14  1  0
 12 15  1  0
 15 16  1  0
 16 17  1  0
 17 18  1  0
 18 19  1  0
 19 15  1  0
  1 20  1  0
  1 21  1  0
  1 22  1  0
  2 23  1  0
  2 24  1  0
  3 25  1  0
  4 26  1  0
  4 27  1  0
  4 28  1  0
  5 29  1  0
  6 30  1  0
  6 31  1  0
  6 32  1  0
  7 33  1  0
 13 34  1  0
 13 35  1  0
 14 36  1  0
 14 37  1  0
 14 38  1  0
 15 39  1  0
 16 40  1  0
 16 41  1  0
 17 42  1  0
 17 43  1  0
 18 44  1  0
 19 45  1  0
 19 46  1  0
M  END
>  <Energy>  (102) 
148.30793762386651

>  <compound_id>  (102) 
52688

>  <target_id>  (102) 
1

>  <reference_id>  (102) 
13

>  <inspiration_ids>  (102) 
[53, 13]

>  <energy_score>  (102) 
39.74815797333139

>  <distance_score>  (102) 
2.5152381582064907

>  <path>  (102) 
/opt/xchem-fragalysis-2/maxwin/BulkDock/SCRATCH/511025/C52688-P13/C52688-P13.minimised.mol

>  <scratch_subdir>  (102) 
/opt/xchem-fragalysis-2/maxwin/BulkDock/SCRATCH/511025/C52688-P13

>  <fragmenstein_runtime>  (102) 
4.5637712478637695

>  <fragmenstein_outcome>  (102) 
too moved

>  <fragmenstein_mode>  (102) 
expansion

>  <fragmenstein_error>  (102) 


$$$$
C52689-P53
     RDKit          3D

 36 36  0  0  0  0  0  0  0  0999 V2000
    3.7593    2.8813   27.4031 C   0  0  0  0  0  0  0  0  0  0  0  0
    3.0870    2.2737   28.6411 C   0  0  0  0  0  0  0  0  0  0  0  0
    2.7935    0.7394   28.5611 C   0  0  0  0  0  0  0  0  0  0  0  0
    1.8797    0.1851   29.7560 C   0  0  0  0  0  0  0  0  0  0  0  0
    1.0615   -1.1267   29.5429 N   0  0  0  0  0  0  0  0  0  0  0  0
    0.2167   -1.1735   28.3211 C   0  0  0  0  0  0  0  0  0  0  0  0
   -0.8046   -0.0302   28.2832 C   0  0  0  0  0  0  0  0  0  0  0  0
   -1.9875   -0.3055   27.3750 C   0  0  0  0  0  0  0  0  0  0  0  0
   -2.3634    1.0479   26.7889 C   0  0  0  0  0  0  0  0  0  0  0  0
   -1.4334    2.0430   27.4479 C   0  0  0  0  0  0  0  0  0  0  0  0
   -0.2522    1.2453   27.7795 N   0  0  0  0  0  0  0  0  0  0  0  0
    0.3651   -1.8710   30.9197 S   0  0  0  0  0  0  0  0  0  0  0  0
   -0.3636   -0.5657   31.6631 N   0  0  0  0  0  0  0  0  0  0  0  0
    1.3935   -2.3046   31.8290 O   0  0  0  0  0  0  0  0  0  0  0  0
   -0.7458   -2.7324   30.5811 O   0  0  0  0  0  0  0  0  0  0  0  0
    3.1286    2.7479   26.5187 H   0  0  0  0  0  0  0  0  0  0  0  0
    3.9284    3.9522   27.5497 H   0  0  0  0  0  0  0  0  0  0  0  0
    4.7239    2.4000   27.2152 H   0  0  0  0  0  0  0  0  0  0  0  0
    2.1423    2.8042   28.8080 H   0  0  0  0  0  0  0  0  0  0  0  0
    3.7154    2.4614   29.5194 H   0  0  0  0  0  0  0  0  0  0  0  0
    2.3245    0.5238   27.5982 H   0  0  0  0  0  0  0  0  0  0  0  0
    3.7395    0.1848   28.5679 H   0  0  0  0  0  0  0  0  0  0  0  0
    1.1756    0.9704   30.0518 H   0  0  0  0  0  0  0  0  0  0  0  0
    2.5459    0.0114   30.6101 H   0  0  0  0  0  0  0  0  0  0  0  0
   -0.2862   -2.1449   28.2548 H   0  0  0  0  0  0  0  0  0  0  0  0
    0.8731   -1.1461   27.4460 H   0  0  0  0  0  0  0  0  0  0  0  0
   -1.1960    0.1599   29.2869 H   0  0  0  0  0  0  0  0  0  0  0  0
   -1.7559   -1.0032   26.5740 H   0  0  0  0  0  0  0  0  0  0  0  0
   -2.8013   -0.7465   27.9530 H   0  0  0  0  0  0  0  0  0  0  0  0
   -2.1910    1.0406   25.7092 H   0  0  0  0  0  0  0  0  0  0  0  0
   -3.4124    1.3063   26.9521 H   0  0  0  0  0  0  0  0  0  0  0  0
   -1.8788    2.4538   28.3598 H   0  0  0  0  0  0  0  0  0  0  0  0
   -1.1848    2.8790   26.7874 H   0  0  0  0  0  0  0  0  0  0  0  0
    0.2473    1.0503   26.9111 H   0  0  0  0  0  0  0  0  0  0  0  0
   -1.3151   -0.4928   31.3088 H   0  0  0  0  0  0  0  0  0  0  0  0
   -0.3596   -0.7505   32.6667 H   0  0  0  0  0  0  0  0  0  0  0  0
  1  2  1  0
  2  3  1  0
  3  4  1  0
  4  5  1  0
  5  6  1  0
  6  7  1  0
  7  8  1  0
  8  9  1  0
  9 10  1  0
 10 11  1  0
  5 12  1  0
 12 13  1  0
 12 14  2  0
 12 15  2  0
 11  7  1  0
  1 16  1  0
  1 17  1  0
  1 18  1  0
  2 19  1  0
  2 20  1  0
  3 21  1  0
  3 22  1  0
  4 23  1  0
  4 24  1  0
  6 25  1  0
  6 26  1  0
  7 27  1  0
  8 28  1  0
  8 29  1  0
  9 30  1  0
  9 31  1  0
 10 32  1  0
 10 33  1  0
 11 34  1  0
 13 35  1  0
 13 36  1  0
M  END
>  <Energy>  (103) 
-167.50131970914956

>  <compound_id>  (103) 
52689

>  <target_id>  (103) 
1

>  <reference_id>  (103) 
53

>  <inspiration_ids>  (103) 
[53, 13]

>  <energy_score>  (103) 
-44.811285014745465

>  <distance_score>  (103) 
2.145857703828861

>  <path>  (103) 
/opt/xchem-fragalysis-2/maxwin/BulkDock/SCRATCH/511025/C52689-P53/C52689-P53.minimised.mol

>  <scratch_subdir>  (103) 
/opt/xchem-fragalysis-2/maxwin/BulkDock/SCRATCH/511025/C52689-P53

>  <fragmenstein_runtime>  (103) 
3.369487762451172

>  <fragmenstein_outcome>  (103) 
too moved

>  <fragmenstein_mode>  (103) 
expansion

>  <fragmenstein_error>  (103) 


$$$$
C52689-P13
     RDKit          3D

 36 36  0  0  0  0  0  0  0  0999 V2000
    3.4812    3.0977   27.7624 C   0  0  0  0  0  0  0  0  0  0  0  0
    3.3079    1.5787   27.9344 C   0  0  0  0  0  0  0  0  0  0  0  0
    2.6608    1.1498   29.2831 C   0  0  0  0  0  0  0  0  0  0  0  0
    2.4108   -0.4115   29.5338 C   0  0  0  0  0  0  0  0  0  0  0  0
    0.9611   -0.8839   29.6707 N   0  0  0  0  0  0  0  0  0  0  0  0
    0.2302   -1.0627   28.4023 C   0  0  0  0  0  0  0  0  0  0  0  0
   -0.7353    0.1223   28.2859 C   0  0  0  0  0  0  0  0  0  0  0  0
   -1.9526   -0.1641   27.4425 C   0  0  0  0  0  0  0  0  0  0  0  0
   -2.3411    1.1786   26.8438 C   0  0  0  0  0  0  0  0  0  0  0  0
   -1.2586    2.1472   27.2753 C   0  0  0  0  0  0  0  0  0  0  0  0
   -0.1240    1.3023   27.6439 N   0  0  0  0  0  0  0  0  0  0  0  0
    0.4134   -1.8412   30.9462 S   0  0  0  0  0  0  0  0  0  0  0  0
    0.3965   -0.6529   32.1134 N   0  0  0  0  0  0  0  0  0  0  0  0
    1.3998   -2.8142   31.3327 O   0  0  0  0  0  0  0  0  0  0  0  0
   -0.9834   -2.1877   30.8012 O   0  0  0  0  0  0  0  0  0  0  0  0
    4.1166    3.5044   28.5549 H   0  0  0  0  0  0  0  0  0  0  0  0
    3.9465    3.3177   26.7969 H   0  0  0  0  0  0  0  0  0  0  0  0
    2.5106    3.6014   27.8025 H   0  0  0  0  0  0  0  0  0  0  0  0
    4.2913    1.1009   27.8526 H   0  0  0  0  0  0  0  0  0  0  0  0
    2.7018    1.1945   27.1071 H   0  0  0  0  0  0  0  0  0  0  0  0
    3.3392    1.4873   30.0783 H   0  0  0  0  0  0  0  0  0  0  0  0
    1.7259    1.6949   29.4445 H   0  0  0  0  0  0  0  0  0  0  0  0
    2.9200   -0.6638   30.4723 H   0  0  0  0  0  0  0  0  0  0  0  0
    2.9016   -0.9967   28.7477 H   0  0  0  0  0  0  0  0  0  0  0  0
   -0.3076   -2.0169   28.3837 H   0  0  0  0  0  0  0  0  0  0  0  0
    0.9285   -1.0978   27.5611 H   0  0  0  0  0  0  0  0  0  0  0  0
   -1.0765    0.4257   29.2860 H   0  0  0  0  0  0  0  0  0  0  0  0
   -1.7536   -0.8741   26.6491 H   0  0  0  0  0  0  0  0  0  0  0  0
   -2.7339   -0.6101   28.0550 H   0  0  0  0  0  0  0  0  0  0  0  0
   -2.3790    1.1051   25.7539 H   0  0  0  0  0  0  0  0  0  0  0  0
   -3.3226    1.5231   27.1762 H   0  0  0  0  0  0  0  0  0  0  0  0
   -1.5831    2.7332   28.1412 H   0  0  0  0  0  0  0  0  0  0  0  0
   -0.9939    2.8504   26.4796 H   0  0  0  0  0  0  0  0  0  0  0  0
    0.3360    0.9907   26.7916 H   0  0  0  0  0  0  0  0  0  0  0  0
   -0.3483    0.0015   31.8871 H   0  0  0  0  0  0  0  0  0  0  0  0
    0.2523   -1.0919   33.0213 H   0  0  0  0  0  0  0  0  0  0  0  0
  1  2  1  0
  2  3  1  0
  3  4  1  0
  4  5  1  0
  5  6  1  0
  6  7  1  0
  7  8  1  0
  8  9  1  0
  9 10  1  0
 10 11  1  0
  5 12  1  0
 12 13  1  0
 12 14  2  0
 12 15  2  0
 11  7  1  0
  1 16  1  0
  1 17  1  0
  1 18  1  0
  2 19  1  0
  2 20  1  0
  3 21  1  0
  3 22  1  0
  4 23  1  0
  4 24  1  0
  6 25  1  0
  6 26  1  0
  7 27  1  0
  8 28  1  0
  8 29  1  0
  9 30  1  0
  9 31  1  0
 10 32  1  0
 10 33  1  0
 11 34  1  0
 13 35  1  0
 13 36  1  0
M  END
>  <Energy>  (104) 
-167.22320011598205

>  <compound_id>  (104) 
52689

>  <target_id>  (104) 
1

>  <reference_id>  (104) 
13

>  <inspiration_ids>  (104) 
[53, 13]

>  <energy_score>  (104) 
-44.533165421578374

>  <distance_score>  (104) 
2.200100524867895

>  <path>  (104) 
/opt/xchem-fragalysis-2/maxwin/BulkDock/SCRATCH/511025/C52689-P13/C52689-P13.minimised.mol

>  <scratch_subdir>  (104) 
/opt/xchem-fragalysis-2/maxwin/BulkDock/SCRATCH/511025/C52689-P13

>  <fragmenstein_runtime>  (104) 
3.339284896850586

>  <fragmenstein_outcome>  (104) 
too moved

>  <fragmenstein_mode>  (104) 
expansion

>  <fragmenstein_error>  (104) 


$$$$
C52691-P53
     RDKit          3D

 38 38  0  0  0  0  0  0  0  0999 V2000
   -3.1571    2.1244   26.4348 C   0  0  0  0  0  0  0  0  0  0  0  0
   -1.9901    2.0512   27.0872 C   0  0  0  0  0  0  0  0  0  0  0  0
   -1.1554    0.5087   27.6460 C   0  0  0  0  0  0  0  0  0  0  0  0
   -0.0088    0.9992   27.9440 N   0  0  0  0  0  0  0  0  0  0  0  0
   -1.5887   -0.1470   27.5529 C   0  0  0  0  0  0  0  0  0  0  0  0
    0.5318    1.4304   29.2052 C   0  0  0  0  0  0  0  0  0  0  0  0
    0.1088    1.3257   30.3151 O   0  0  0  0  0  0  0  0  0  0  0  0
    1.8877    2.1991   28.9963 C   0  0  0  0  0  0  0  0  0  0  0  0
    2.7750    1.9777   29.7773 O   0  0  0  0  0  0  0  0  0  0  0  0
    1.8077    3.1443   27.9176 N   0  0  0  0  0  0  0  0  0  0  0  0
    2.3084    2.4980   26.6072 C   0  0  0  0  0  0  0  0  0  0  0  0
    3.2307    1.2687   26.7348 C   0  0  0  0  0  0  0  0  0  0  0  0
    2.7614    4.2370   27.4908 C   0  0  0  0  0  0  0  0  0  0  0  0
    2.5875    5.3772   28.5176 C   0  0  0  0  0  0  0  0  0  0  0  0
    3.7706    6.2897   28.2547 C   0  0  0  0  0  0  0  0  0  0  0  0
    4.8441    5.4432   27.7205 N   0  0  0  0  0  0  0  0  0  0  0  0
    4.2947    4.0813   27.6139 C   0  0  0  0  0  0  0  0  0  0  0  0
   -3.5664    3.0916   26.1545 H   0  0  0  0  0  0  0  0  0  0  0  0
   -3.7388    1.2532   26.1691 H   0  0  0  0  0  0  0  0  0  0  0  0
   -1.4453    2.9617   27.3455 H   0  0  0  0  0  0  0  0  0  0  0  0
   -1.5548    1.1151   28.7107 H   0  0  0  0  0  0  0  0  0  0  0  0
   -0.6173    0.7803   26.4989 H   0  0  0  0  0  0  0  0  0  0  0  0
   -1.0795   -1.2740   27.6900 H   0  0  0  0  0  0  0  0  0  0  0  0
   -2.4645   -0.4023   28.4064 H   0  0  0  0  0  0  0  0  0  0  0  0
   -2.0206   -0.4071   26.4087 H   0  0  0  0  0  0  0  0  0  0  0  0
    2.6248    3.1071   25.7413 H   0  0  0  0  0  0  0  0  0  0  0  0
    1.3713    2.1005   26.1958 H   0  0  0  0  0  0  0  0  0  0  0  0
    4.1267    1.4641   27.3272 H   0  0  0  0  0  0  0  0  0  0  0  0
    2.7074    0.4212   27.1890 H   0  0  0  0  0  0  0  0  0  0  0  0
    3.5529    0.9471   25.7385 H   0  0  0  0  0  0  0  0  0  0  0  0
    2.4382    4.7347   26.5568 H   0  0  0  0  0  0  0  0  0  0  0  0
    1.6299    5.8957   28.3990 H   0  0  0  0  0  0  0  0  0  0  0  0
    2.6320    4.9916   29.5448 H   0  0  0  0  0  0  0  0  0  0  0  0
    4.0920    6.8055   29.1645 H   0  0  0  0  0  0  0  0  0  0  0  0
    3.5033    7.0504   27.5122 H   0  0  0  0  0  0  0  0  0  0  0  0
    5.1078    5.7869   26.7981 H   0  0  0  0  0  0  0  0  0  0  0  0
    4.7446    3.5811   26.7514 H   0  0  0  0  0  0  0  0  0  0  0  0
    4.5694    3.5205   28.5140 H   0  0  0  0  0  0  0  0  0  0  0  0
  1  2  2  0
  2  3  1  0
  3  4  1  0
  4  5  1  0
  4  6  1  0
  6  7  2  0
  6  8  1  0
  8  9  2  0
  8 10  1  0
 10 11  1  0
 11 12  1  0
 10 13  1  0
 13 14  1  0
 14 15  1  0
 15 16  1  0
 16 17  1  0
 17 13  1  0
  1 18  1  0
  1 19  1  0
  2 20  1  0
  3 21  1  0
  3 22  1  0
  5 23  1  0
  5 24  1  0
  5 25  1  0
 11 26  1  0
 11 27  1  0
 12 28  1  0
 12 29  1  0
 12 30  1  0
 13 31  1  0
 14 32  1  0
 14 33  1  0
 15 34  1  0
 15 35  1  0
 16 36  1  0
 17 37  1  0
 17 38  1  0
M  END
>  <Energy>  (105) 
962.44205933130252

>  <compound_id>  (105) 
52691

>  <target_id>  (105) 
1

>  <reference_id>  (105) 
53

>  <inspiration_ids>  (105) 
[53, 13]

>  <energy_score>  (105) 
861.9015463587561

>  <distance_score>  (105) 
2.3761272473492605

>  <path>  (105) 
/opt/xchem-fragalysis-2/maxwin/BulkDock/SCRATCH/511025/C52691-P53/C52691-P53.minimised.mol

>  <scratch_subdir>  (105) 
/opt/xchem-fragalysis-2/maxwin/BulkDock/SCRATCH/511025/C52691-P53

>  <fragmenstein_runtime>  (105) 
4.898103952407837

>  <fragmenstein_outcome>  (105) 
too moved

>  <fragmenstein_mode>  (105) 
expansion

>  <fragmenstein_error>  (105) 


$$$$
C52691-P13
     RDKit          3D

 38 38  0  0  0  0  0  0  0  0999 V2000
   -2.9765    3.9373   24.3002 C   0  0  0  0  0  0  0  0  0  0  0  0
   -1.9498    3.8433   25.1563 C   0  0  0  0  0  0  0  0  0  0  0  0
   -1.9646    2.8665   26.6921 C   0  0  0  0  0  0  0  0  0  0  0  0
   -0.8154    3.0788   27.2876 N   0  0  0  0  0  0  0  0  0  0  0  0
   -2.5869    2.3676   26.7900 C   0  0  0  0  0  0  0  0  0  0  0  0
   -0.2179    4.5239   27.5428 C   0  0  0  0  0  0  0  0  0  0  0  0
   -0.6553    5.5878   27.3961 O   0  0  0  0  0  0  0  0  0  0  0  0
    1.2626    4.3550   27.9784 C   0  0  0  0  0  0  0  0  0  0  0  0
    1.5383    4.3040   29.1452 O   0  0  0  0  0  0  0  0  0  0  0  0
    2.1065    4.3802   26.8219 N   0  0  0  0  0  0  0  0  0  0  0  0
    2.3650    2.9497   26.3275 C   0  0  0  0  0  0  0  0  0  0  0  0
    2.3275    1.7942   27.3497 C   0  0  0  0  0  0  0  0  0  0  0  0
    3.6114    4.4662   26.7003 C   0  0  0  0  0  0  0  0  0  0  0  0
    3.9339    5.9558   26.9716 C   0  0  0  0  0  0  0  0  0  0  0  0
    5.4366    5.9691   27.1448 C   0  0  0  0  0  0  0  0  0  0  0  0
    5.7751    4.6977   27.7856 N   0  0  0  0  0  0  0  0  0  0  0  0
    4.5710    3.8509   27.7433 C   0  0  0  0  0  0  0  0  0  0  0  0
   -2.9077    4.5656   23.4175 H   0  0  0  0  0  0  0  0  0  0  0  0
   -3.9201    3.4307   24.4682 H   0  0  0  0  0  0  0  0  0  0  0  0
   -1.0313    4.4023   24.9808 H   0  0  0  0  0  0  0  0  0  0  0  0
   -2.2686    4.0337   27.0805 H   0  0  0  0  0  0  0  0  0  0  0  0
   -1.1079    2.3286   25.9017 H   0  0  0  0  0  0  0  0  0  0  0  0
   -2.7407    1.6386   27.7662 H   0  0  0  0  0  0  0  0  0  0  0  0
   -3.6982    2.9137   26.9608 H   0  0  0  0  0  0  0  0  0  0  0  0
   -2.6937    1.3901   26.0268 H   0  0  0  0  0  0  0  0  0  0  0  0
    3.1157    2.7548   25.5418 H   0  0  0  0  0  0  0  0  0  0  0  0
    1.4526    2.7862   25.7317 H   0  0  0  0  0  0  0  0  0  0  0  0
    2.9870    1.9334   28.2062 H   0  0  0  0  0  0  0  0  0  0  0  0
    1.3201    1.6387   27.7448 H   0  0  0  0  0  0  0  0  0  0  0  0
    2.6170    0.8615   26.8536 H   0  0  0  0  0  0  0  0  0  0  0  0
    3.9710    4.3574   25.6601 H   0  0  0  0  0  0  0  0  0  0  0  0
    3.6068    6.6032   26.1507 H   0  0  0  0  0  0  0  0  0  0  0  0
    3.4444    6.3072   27.8899 H   0  0  0  0  0  0  0  0  0  0  0  0
    5.7727    6.8194   27.7450 H   0  0  0  0  0  0  0  0  0  0  0  0
    5.9274    6.0275   26.1662 H   0  0  0  0  0  0  0  0  0  0  0  0
    6.5465    4.2524   27.2913 H   0  0  0  0  0  0  0  0  0  0  0  0
    4.8627    2.8290   27.4832 H   0  0  0  0  0  0  0  0  0  0  0  0
    4.1260    3.8417   28.7436 H   0  0  0  0  0  0  0  0  0  0  0  0
  1  2  2  0
  2  3  1  0
  3  4  1  0
  4  5  1  0
  4  6  1  0
  6  7  2  0
  6  8  1  0
  8  9  2  0
  8 10  1  0
 10 11  1  0
 11 12  1  0
 10 13  1  0
 13 14  1  0
 14 15  1  0
 15 16  1  0
 16 17  1  0
 17 13  1  0
  1 18  1  0
  1 19  1  0
  2 20  1  0
  3 21  1  0
  3 22  1  0
  5 23  1  0
  5 24  1  0
  5 25  1  0
 11 26  1  0
 11 27  1  0
 12 28  1  0
 12 29  1  0
 12 30  1  0
 13 31  1  0
 14 32  1  0
 14 33  1  0
 15 34  1  0
 15 35  1  0
 16 36  1  0
 17 37  1  0
 17 38  1  0
M  END
>  <Energy>  (106) 
920.5833637029906

>  <compound_id>  (106) 
52691

>  <target_id>  (106) 
1

>  <reference_id>  (106) 
13

>  <inspiration_ids>  (106) 
[53, 13]

>  <energy_score>  (106) 
820.0428507304377

>  <distance_score>  (106) 
2.5490650378232695

>  <path>  (106) 
/opt/xchem-fragalysis-2/maxwin/BulkDock/SCRATCH/511025/C52691-P13/C52691-P13.minimised.mol

>  <scratch_subdir>  (106) 
/opt/xchem-fragalysis-2/maxwin/BulkDock/SCRATCH/511025/C52691-P13

>  <fragmenstein_runtime>  (106) 
3.9822607040405273

>  <fragmenstein_outcome>  (106) 
too moved

>  <fragmenstein_mode>  (106) 
expansion

>  <fragmenstein_error>  (106) 


$$$$
C52694-P53
     RDKit          3D

 37 37  0  0  0  0  0  0  0  0999 V2000
    1.1099   -3.3119   28.7053 C   0  0  0  0  0  0  0  0  0  0  0  0
   -0.0052   -2.2878   28.9389 C   0  0  0  0  0  0  0  0  0  0  0  0
    0.1199   -1.9055   30.3501 N   0  0  0  0  0  0  0  0  0  0  0  0
   -0.8545   -2.5029   31.5604 S   0  0  0  0  0  0  0  0  0  0  0  0
    0.0515   -2.7064   32.6678 O   0  0  0  0  0  0  0  0  0  0  0  0
   -1.6674   -3.5912   31.0734 O   0  0  0  0  0  0  0  0  0  0  0  0
   -1.9333   -1.0616   31.8846 C   0  0  0  0  0  0  0  0  0  0  0  0
   -1.1796   -0.0277   32.7103 C   0  0  0  0  0  0  0  0  0  0  0  0
   -2.3544   -0.4349   30.5440 C   0  0  0  0  0  0  0  0  0  0  0  0
   -3.1618   -1.5366   32.6707 C   0  0  0  0  0  0  0  0  0  0  0  0
    0.1563   -1.0541   28.0161 C   0  0  0  0  0  0  0  0  0  0  0  0
   -1.1426   -0.4286   27.4833 C   0  0  0  0  0  0  0  0  0  0  0  0
   -0.8922    1.0699   27.4336 C   0  0  0  0  0  0  0  0  0  0  0  0
    0.5521    1.2180   27.6273 N   0  0  0  0  0  0  0  0  0  0  0  0
    0.9298    0.1470   28.5520 C   0  0  0  0  0  0  0  0  0  0  0  0
    1.0155   -4.1569   29.3969 H   0  0  0  0  0  0  0  0  0  0  0  0
    2.1003   -2.8684   28.8603 H   0  0  0  0  0  0  0  0  0  0  0  0
    1.0780   -3.7109   27.6946 H   0  0  0  0  0  0  0  0  0  0  0  0
   -0.9692   -2.7647   28.7392 H   0  0  0  0  0  0  0  0  0  0  0  0
    1.0722   -1.7553   30.6903 H   0  0  0  0  0  0  0  0  0  0  0  0
   -1.8254    0.8082   32.9838 H   0  0  0  0  0  0  0  0  0  0  0  0
   -0.3120    0.3701   32.1727 H   0  0  0  0  0  0  0  0  0  0  0  0
   -0.8091   -0.4557   33.6487 H   0  0  0  0  0  0  0  0  0  0  0  0
   -1.5714    0.2089   30.1461 H   0  0  0  0  0  0  0  0  0  0  0  0
   -2.5738   -1.2289   29.8367 H   0  0  0  0  0  0  0  0  0  0  0  0
   -3.2467    0.1670   30.6622 H   0  0  0  0  0  0  0  0  0  0  0  0
   -3.8379   -0.7041   32.8939 H   0  0  0  0  0  0  0  0  0  0  0  0
   -2.8647   -1.9865   33.6237 H   0  0  0  0  0  0  0  0  0  0  0  0
   -3.7321   -2.2872   32.1143 H   0  0  0  0  0  0  0  0  0  0  0  0
    0.7070   -1.3938   27.1368 H   0  0  0  0  0  0  0  0  0  0  0  0
   -2.0321   -0.6602   28.0576 H   0  0  0  0  0  0  0  0  0  0  0  0
   -1.3727   -0.7880   26.4850 H   0  0  0  0  0  0  0  0  0  0  0  0
   -1.2083    1.5074   26.4820 H   0  0  0  0  0  0  0  0  0  0  0  0
   -1.4358    1.5788   28.2373 H   0  0  0  0  0  0  0  0  0  0  0  0
    0.7638    2.1349   28.0190 H   0  0  0  0  0  0  0  0  0  0  0  0
    0.6413    0.4294   29.5691 H   0  0  0  0  0  0  0  0  0  0  0  0
    2.0103   -0.0245   28.5345 H   0  0  0  0  0  0  0  0  0  0  0  0
  1  2  1  0
  2  3  1  0
  3  4  1  0
  4  5  2  0
  4  6  2  0
  4  7  1  0
  7  8  1  0
  7  9  1  0
  7 10  1  0
  2 11  1  0
 11 12  1  0
 12 13  1  0
 13 14  1  0
 14 15  1  0
 15 11  1  0
  1 16  1  0
  1 17  1  0
  1 18  1  0
  2 19  1  0
  3 20  1  0
  8 21  1  0
  8 22  1  0
  8 23  1  0
  9 24  1  0
  9 25  1  0
  9 26  1  0
 10 27  1  0
 10 28  1  0
 10 29  1  0
 11 30  1  0
 12 31  1  0
 12 32  1  0
 13 33  1  0
 13 34  1  0
 14 35  1  0
 15 36  1  0
 15 37  1  0
M  END
>  <Energy>  (107) 
-39.112198387000753

>  <compound_id>  (107) 
52694

>  <target_id>  (107) 
1

>  <reference_id>  (107) 
53

>  <inspiration_ids>  (107) 
[53, 13]

>  <energy_score>  (107) 
-36.22315905472962

>  <distance_score>  (107) 
2.2137155004816433

>  <path>  (107) 
/opt/xchem-fragalysis-2/maxwin/BulkDock/SCRATCH/511025/C52694-P53/C52694-P53.minimised.mol

>  <scratch_subdir>  (107) 
/opt/xchem-fragalysis-2/maxwin/BulkDock/SCRATCH/511025/C52694-P53

>  <fragmenstein_runtime>  (107) 
212.58258962631226

>  <fragmenstein_outcome>  (107) 
too moved

>  <fragmenstein_mode>  (107) 
expansion

>  <fragmenstein_error>  (107) 


$$$$
C52694-P13
     RDKit          3D

 37 37  0  0  0  0  0  0  0  0999 V2000
    1.7119   -2.7149   29.2895 C   0  0  0  0  0  0  0  0  0  0  0  0
    0.3862   -2.2512   28.6972 C   0  0  0  0  0  0  0  0  0  0  0  0
   -0.8042   -2.5824   29.5055 N   0  0  0  0  0  0  0  0  0  0  0  0
   -0.9395   -2.7083   31.1603 S   0  0  0  0  0  0  0  0  0  0  0  0
    0.3672   -2.6504   31.7700 O   0  0  0  0  0  0  0  0  0  0  0  0
   -1.7835   -3.8689   31.3751 O   0  0  0  0  0  0  0  0  0  0  0  0
   -1.9311   -1.2331   31.6473 C   0  0  0  0  0  0  0  0  0  0  0  0
   -1.1218   -0.3311   32.5754 C   0  0  0  0  0  0  0  0  0  0  0  0
   -2.3693   -0.4359   30.4180 C   0  0  0  0  0  0  0  0  0  0  0  0
   -3.1720   -1.7030   32.4308 C   0  0  0  0  0  0  0  0  0  0  0  0
    0.4435   -0.8135   28.1463 C   0  0  0  0  0  0  0  0  0  0  0  0
   -0.8272   -0.2013   27.5563 C   0  0  0  0  0  0  0  0  0  0  0  0
   -0.7068    1.2971   27.7751 C   0  0  0  0  0  0  0  0  0  0  0  0
    0.6193    1.4995   28.3569 N   0  0  0  0  0  0  0  0  0  0  0  0
    0.9686    0.2706   29.0694 C   0  0  0  0  0  0  0  0  0  0  0  0
    1.6482   -3.7493   29.6438 H   0  0  0  0  0  0  0  0  0  0  0  0
    2.0437   -2.0832   30.1179 H   0  0  0  0  0  0  0  0  0  0  0  0
    2.4993   -2.6783   28.5279 H   0  0  0  0  0  0  0  0  0  0  0  0
    0.2533   -2.8949   27.8216 H   0  0  0  0  0  0  0  0  0  0  0  0
   -1.5235   -3.1035   28.9854 H   0  0  0  0  0  0  0  0  0  0  0  0
   -0.2124    0.0431   32.0983 H   0  0  0  0  0  0  0  0  0  0  0  0
   -0.8086   -0.8707   33.4770 H   0  0  0  0  0  0  0  0  0  0  0  0
   -1.7076    0.5327   32.9039 H   0  0  0  0  0  0  0  0  0  0  0  0
   -2.6244   -1.0868   29.5941 H   0  0  0  0  0  0  0  0  0  0  0  0
   -3.2654    0.1193   30.6461 H   0  0  0  0  0  0  0  0  0  0  0  0
   -1.6089    0.2749   30.1199 H   0  0  0  0  0  0  0  0  0  0  0  0
   -3.7915   -0.8555   32.7453 H   0  0  0  0  0  0  0  0  0  0  0  0
   -2.8779   -2.2452   33.3352 H   0  0  0  0  0  0  0  0  0  0  0  0
   -3.8013   -2.3699   31.8335 H   0  0  0  0  0  0  0  0  0  0  0  0
    1.1740   -0.8523   27.3251 H   0  0  0  0  0  0  0  0  0  0  0  0
   -1.7532   -0.6018   27.9504 H   0  0  0  0  0  0  0  0  0  0  0  0
   -0.9006   -0.3694   26.4951 H   0  0  0  0  0  0  0  0  0  0  0  0
   -0.7954    1.8510   26.8350 H   0  0  0  0  0  0  0  0  0  0  0  0
   -1.4911    1.6614   28.4425 H   0  0  0  0  0  0  0  0  0  0  0  0
    0.6304    2.3124   28.9706 H   0  0  0  0  0  0  0  0  0  0  0  0
    0.5063    0.2425   30.0548 H   0  0  0  0  0  0  0  0  0  0  0  0
    2.0529    0.2075   29.2032 H   0  0  0  0  0  0  0  0  0  0  0  0
  1  2  1  0
  2  3  1  0
  3  4  1  0
  4  5  2  0
  4  6  2  0
  4  7  1  0
  7  8  1  0
  7  9  1  0
  7 10  1  0
  2 11  1  0
 11 12  1  0
 12 13  1  0
 13 14  1  0
 14 15  1  0
 15 11  1  0
  1 16  1  0
  1 17  1  0
  1 18  1  0
  2 19  1  0
  3 20  1  0
  8 21  1  0
  8 22  1  0
  8 23  1  0
  9 24  1  0
  9 25  1  0
  9 26  1  0
 10 27  1  0
 10 28  1  0
 10 29  1  0
 11 30  1  0
 12 31  1  0
 12 32  1  0
 13 33  1  0
 13 34  1  0
 14 35  1  0
 15 36  1  0
 15 37  1  0
M  END
>  <Energy>  (108) 
-28.041859041387738

>  <compound_id>  (108) 
52694

>  <target_id>  (108) 
1

>  <reference_id>  (108) 
13

>  <inspiration_ids>  (108) 
[53, 13]

>  <energy_score>  (108) 
-25.152819709116727

>  <distance_score>  (108) 
1.9927755281452635

>  <path>  (108) 
/opt/xchem-fragalysis-2/maxwin/BulkDock/SCRATCH/511025/C52694-P13/C52694-P13.minimised.mol

>  <scratch_subdir>  (108) 
/opt/xchem-fragalysis-2/maxwin/BulkDock/SCRATCH/511025/C52694-P13

>  <fragmenstein_runtime>  (108) 
165.59680891036987

>  <fragmenstein_outcome>  (108) 
too moved

>  <fragmenstein_mode>  (108) 
expansion

>  <fragmenstein_error>  (108) 


$$$$
C52698-P53
     RDKit          3D

 41 41  0  0  0  0  0  0  0  0999 V2000
    2.4644    6.1026   31.9018 C   0  0  0  0  0  0  0  0  0  0  0  0
    2.6945    5.9995   30.3861 C   0  0  0  0  0  0  0  0  0  0  0  0
    4.2033    5.9598   30.1219 C   0  0  0  0  0  0  0  0  0  0  0  0
    2.0210    7.1982   29.7082 C   0  0  0  0  0  0  0  0  0  0  0  0
    2.0558    4.7536   30.0042 O   0  0  0  0  0  0  0  0  0  0  0  0
    2.0403    4.3324   28.7095 C   0  0  0  0  0  0  0  0  0  0  0  0
    2.5803    4.9228   27.8225 O   0  0  0  0  0  0  0  0  0  0  0  0
    1.2758    3.1490   28.6911 N   0  0  0  0  0  0  0  0  0  0  0  0
   -0.2159    3.4885   28.4969 C   0  0  0  0  0  0  0  0  0  0  0  0
   -0.8350    4.4412   27.4356 C   0  0  0  0  0  0  0  0  0  0  0  0
   -1.3869    3.7167   26.4374 F   0  0  0  0  0  0  0  0  0  0  0  0
   -1.8269    5.1792   27.9738 F   0  0  0  0  0  0  0  0  0  0  0  0
    0.0611    5.2903   26.9108 F   0  0  0  0  0  0  0  0  0  0  0  0
    0.9822    2.1713   27.5582 C   0  0  0  0  0  0  0  0  0  0  0  0
    0.9931    2.6396   26.1383 C   0  0  0  0  0  0  0  0  0  0  0  0
    0.9892    2.9803   25.0281 N   0  0  0  0  0  0  0  0  0  0  0  0
    0.3142    0.7776   27.7997 C   0  0  0  0  0  0  0  0  0  0  0  0
    0.3894    0.2558   29.2354 C   0  0  0  0  0  0  0  0  0  0  0  0
   -0.8025   -0.6741   29.3228 C   0  0  0  0  0  0  0  0  0  0  0  0
   -1.8287    0.0344   28.5661 N   0  0  0  0  0  0  0  0  0  0  0  0
   -1.1535    0.5953   27.3923 C   0  0  0  0  0  0  0  0  0  0  0  0
    1.3930    6.0956   32.1346 H   0  0  0  0  0  0  0  0  0  0  0  0
    2.9031    7.0150   32.3193 H   0  0  0  0  0  0  0  0  0  0  0  0
    2.8987    5.2404   32.4214 H   0  0  0  0  0  0  0  0  0  0  0  0
    4.4325    5.9609   29.0521 H   0  0  0  0  0  0  0  0  0  0  0  0
    4.6467    5.0478   30.5373 H   0  0  0  0  0  0  0  0  0  0  0  0
    4.7079    6.8254   30.5645 H   0  0  0  0  0  0  0  0  0  0  0  0
    2.2106    7.2193   28.6308 H   0  0  0  0  0  0  0  0  0  0  0  0
    2.3830    8.1453   30.1224 H   0  0  0  0  0  0  0  0  0  0  0  0
    0.9332    7.1549   29.8342 H   0  0  0  0  0  0  0  0  0  0  0  0
   -0.3356    4.1067   29.3991 H   0  0  0  0  0  0  0  0  0  0  0  0
   -0.8976    2.6799   28.7705 H   0  0  0  0  0  0  0  0  0  0  0  0
    2.0284    1.8017   27.5493 H   0  0  0  0  0  0  0  0  0  0  0  0
    0.8713    0.0572   27.1793 H   0  0  0  0  0  0  0  0  0  0  0  0
    1.3324   -0.2638   29.4326 H   0  0  0  0  0  0  0  0  0  0  0  0
    0.2859    1.0579   29.9741 H   0  0  0  0  0  0  0  0  0  0  0  0
   -0.5878   -1.6415   28.8538 H   0  0  0  0  0  0  0  0  0  0  0  0
   -1.1130   -0.8556   30.3558 H   0  0  0  0  0  0  0  0  0  0  0  0
   -2.2375    0.7796   29.1254 H   0  0  0  0  0  0  0  0  0  0  0  0
   -1.6524    1.5063   27.0599 H   0  0  0  0  0  0  0  0  0  0  0  0
   -1.2337   -0.1197   26.5684 H   0  0  0  0  0  0  0  0  0  0  0  0
  1  2  1  0
  2  3  1  0
  2  4  1  0
  2  5  1  0
  5  6  1  0
  6  7  2  0
  6  8  1  0
  8  9  1  0
  9 10  1  0
 10 11  1  0
 10 12  1  0
 10 13  1  0
  8 14  1  0
 14 15  1  0
 15 16  3  0
 14 17  1  0
 17 18  1  0
 18 19  1  0
 19 20  1  0
 20 21  1  0
 21 17  1  0
  1 22  1  0
  1 23  1  0
  1 24  1  0
  3 25  1  0
  3 26  1  0
  3 27  1  0
  4 28  1  0
  4 29  1  0
  4 30  1  0
  9 31  1  0
  9 32  1  0
 14 33  1  0
 17 34  1  0
 18 35  1  0
 18 36  1  0
 19 37  1  0
 19 38  1  0
 20 39  1  0
 21 40  1  0
 21 41  1  0
M  END
>  <Energy>  (109) 
107.16277329312011

>  <compound_id>  (109) 
52698

>  <target_id>  (109) 
1

>  <reference_id>  (109) 
53

>  <inspiration_ids>  (109) 
[53, 13]

>  <energy_score>  (109) 
56.33691373931276

>  <distance_score>  (109) 
5.503945029061272

>  <path>  (109) 
/opt/xchem-fragalysis-2/maxwin/BulkDock/SCRATCH/511025/C52698-P53/C52698-P53.minimised.mol

>  <scratch_subdir>  (109) 
/opt/xchem-fragalysis-2/maxwin/BulkDock/SCRATCH/511025/C52698-P53

>  <fragmenstein_runtime>  (109) 
28.889296054840088

>  <fragmenstein_outcome>  (109) 
too moved

>  <fragmenstein_mode>  (109) 
expansion

>  <fragmenstein_error>  (109) 


$$$$
C52698-P13
     RDKit          3D

 41 41  0  0  0  0  0  0  0  0999 V2000
    0.1780    3.0613   34.1260 C   0  0  0  0  0  0  0  0  0  0  0  0
    1.3102    2.8129   33.1173 C   0  0  0  0  0  0  0  0  0  0  0  0
    2.1481    1.6270   33.6068 C   0  0  0  0  0  0  0  0  0  0  0  0
    2.1405    4.0957   32.9942 C   0  0  0  0  0  0  0  0  0  0  0  0
    0.6302    2.5040   31.8717 O   0  0  0  0  0  0  0  0  0  0  0  0
    1.3322    2.2396   30.7328 C   0  0  0  0  0  0  0  0  0  0  0  0
    2.5256    2.2151   30.6927 O   0  0  0  0  0  0  0  0  0  0  0  0
    0.3760    2.0410   29.7163 N   0  0  0  0  0  0  0  0  0  0  0  0
    0.0228    3.3763   29.0647 C   0  0  0  0  0  0  0  0  0  0  0  0
    0.9552    4.4292   28.4301 C   0  0  0  0  0  0  0  0  0  0  0  0
    1.3019    4.1041   27.1708 F   0  0  0  0  0  0  0  0  0  0  0  0
    0.2909    5.6074   28.3450 F   0  0  0  0  0  0  0  0  0  0  0  0
    2.0678    4.6325   29.1486 F   0  0  0  0  0  0  0  0  0  0  0  0
    0.5442    1.6164   28.2594 C   0  0  0  0  0  0  0  0  0  0  0  0
    1.9296    1.6736   27.6839 C   0  0  0  0  0  0  0  0  0  0  0  0
    2.9881    1.7081   27.2093 N   0  0  0  0  0  0  0  0  0  0  0  0
   -0.5662    1.4820   27.1728 C   0  0  0  0  0  0  0  0  0  0  0  0
   -1.9881    1.1337   27.6066 C   0  0  0  0  0  0  0  0  0  0  0  0
   -2.8774    1.9127   26.6407 C   0  0  0  0  0  0  0  0  0  0  0  0
   -1.9994    2.2685   25.5235 N   0  0  0  0  0  0  0  0  0  0  0  0
   -0.7336    2.6146   26.1547 C   0  0  0  0  0  0  0  0  0  0  0  0
   -0.4664    3.8838   33.7938 H   0  0  0  0  0  0  0  0  0  0  0  0
    0.5650    3.3062   35.1207 H   0  0  0  0  0  0  0  0  0  0  0  0
   -0.4668    2.1790   34.2132 H   0  0  0  0  0  0  0  0  0  0  0  0
    3.0178    1.4473   32.9678 H   0  0  0  0  0  0  0  0  0  0  0  0
    1.5569    0.7044   33.5995 H   0  0  0  0  0  0  0  0  0  0  0  0
    2.5197    1.7948   34.6234 H   0  0  0  0  0  0  0  0  0  0  0  0
    1.5444    4.9032   32.5541 H   0  0  0  0  0  0  0  0  0  0  0  0
    3.0115    3.9603   32.3460 H   0  0  0  0  0  0  0  0  0  0  0  0
    2.5093    4.4267   33.9710 H   0  0  0  0  0  0  0  0  0  0  0  0
   -0.2255    3.9343   29.9796 H   0  0  0  0  0  0  0  0  0  0  0  0
   -0.9737    3.3641   28.6127 H   0  0  0  0  0  0  0  0  0  0  0  0
    0.5776    0.5421   28.5342 H   0  0  0  0  0  0  0  0  0  0  0  0
   -0.2510    0.6092   26.5886 H   0  0  0  0  0  0  0  0  0  0  0  0
   -2.2028    1.3970   28.6412 H   0  0  0  0  0  0  0  0  0  0  0  0
   -2.1546    0.0548   27.5014 H   0  0  0  0  0  0  0  0  0  0  0  0
   -3.7380    1.3402   26.2964 H   0  0  0  0  0  0  0  0  0  0  0  0
   -3.2455    2.8270   27.1177 H   0  0  0  0  0  0  0  0  0  0  0  0
   -2.4004    3.0618   25.0188 H   0  0  0  0  0  0  0  0  0  0  0  0
   -0.8428    3.6094   26.5884 H   0  0  0  0  0  0  0  0  0  0  0  0
    0.0804    2.6548   25.4270 H   0  0  0  0  0  0  0  0  0  0  0  0
  1  2  1  0
  2  3  1  0
  2  4  1  0
  2  5  1  0
  5  6  1  0
  6  7  2  0
  6  8  1  0
  8  9  1  0
  9 10  1  0
 10 11  1  0
 10 12  1  0
 10 13  1  0
  8 14  1  0
 14 15  1  0
 15 16  3  0
 14 17  1  0
 17 18  1  0
 18 19  1  0
 19 20  1  0
 20 21  1  0
 21 17  1  0
  1 22  1  0
  1 23  1  0
  1 24  1  0
  3 25  1  0
  3 26  1  0
  3 27  1  0
  4 28  1  0
  4 29  1  0
  4 30  1  0
  9 31  1  0
  9 32  1  0
 14 33  1  0
 17 34  1  0
 18 35  1  0
 18 36  1  0
 19 37  1  0
 19 38  1  0
 20 39  1  0
 21 40  1  0
 21 41  1  0
M  END
>  <Energy>  (110) 
108.61693006009257

>  <compound_id>  (110) 
52698

>  <target_id>  (110) 
1

>  <reference_id>  (110) 
13

>  <inspiration_ids>  (110) 
[53, 13]

>  <energy_score>  (110) 
57.791070506286474

>  <distance_score>  (110) 
4.405083220754545

>  <path>  (110) 
/opt/xchem-fragalysis-2/maxwin/BulkDock/SCRATCH/511025/C52698-P13/C52698-P13.minimised.mol

>  <scratch_subdir>  (110) 
/opt/xchem-fragalysis-2/maxwin/BulkDock/SCRATCH/511025/C52698-P13

>  <fragmenstein_runtime>  (110) 
24.388445377349854

>  <fragmenstein_outcome>  (110) 
too moved

>  <fragmenstein_mode>  (110) 
expansion

>  <fragmenstein_error>  (110) 


$$$$
C52701-P53
     RDKit          3D

 33 33  0  0  0  0  0  0  0  0999 V2000
   -4.0891    2.1971   26.3768 C   0  0  0  0  0  0  0  0  0  0  0  0
   -2.8787    1.3008   26.4911 C   0  0  0  0  0  0  0  0  0  0  0  0
   -1.7299    1.9349   25.9276 O   0  0  0  0  0  0  0  0  0  0  0  0
   -1.3315    3.0131   26.8158 N   0  0  0  0  0  0  0  0  0  0  0  0
   -1.5980    4.2671   26.1327 C   0  0  0  0  0  0  0  0  0  0  0  0
   -0.7466    4.5230   24.8918 C   0  0  0  0  0  0  0  0  0  0  0  0
    0.1035    2.7667   27.6344 S   0  0  0  0  0  0  0  0  0  0  0  0
    1.2117    2.6143   26.6025 N   0  0  0  0  0  0  0  0  0  0  0  0
    0.0842    3.7444   28.6919 O   0  0  0  0  0  0  0  0  0  0  0  0
   -0.0216    1.2467   28.3714 N   0  0  0  0  0  0  0  0  0  0  0  0
    0.0563   -0.0027   27.6134 C   0  0  0  0  0  0  0  0  0  0  0  0
   -0.1220   -1.0582   28.6799 C   0  0  0  0  0  0  0  0  0  0  0  0
    0.6852   -0.4991   29.8317 C   0  0  0  0  0  0  0  0  0  0  0  0
    0.6978    1.0087   29.6135 C   0  0  0  0  0  0  0  0  0  0  0  0
   -4.0187    2.9718   27.1379 H   0  0  0  0  0  0  0  0  0  0  0  0
   -4.1381    2.7075   25.4131 H   0  0  0  0  0  0  0  0  0  0  0  0
   -5.0239    1.6630   26.5280 H   0  0  0  0  0  0  0  0  0  0  0  0
   -2.7014    1.0227   27.5354 H   0  0  0  0  0  0  0  0  0  0  0  0
   -3.0306    0.3739   25.9384 H   0  0  0  0  0  0  0  0  0  0  0  0
   -1.4645    5.1007   26.8312 H   0  0  0  0  0  0  0  0  0  0  0  0
   -2.6375    4.3019   25.8072 H   0  0  0  0  0  0  0  0  0  0  0  0
   -1.1026    5.4236   24.3800 H   0  0  0  0  0  0  0  0  0  0  0  0
    0.3027    4.6917   25.1485 H   0  0  0  0  0  0  0  0  0  0  0  0
   -0.8059    3.6930   24.1804 H   0  0  0  0  0  0  0  0  0  0  0  0
    2.0964    2.4698   27.0813 H   0  0  0  0  0  0  0  0  0  0  0  0
   -0.7075   -0.1080   26.8463 H   0  0  0  0  0  0  0  0  0  0  0  0
    1.0405   -0.1083   27.1424 H   0  0  0  0  0  0  0  0  0  0  0  0
   -1.1781   -1.1455   28.9636 H   0  0  0  0  0  0  0  0  0  0  0  0
    0.2310   -2.0439   28.3631 H   0  0  0  0  0  0  0  0  0  0  0  0
    0.2475   -0.7749   30.7963 H   0  0  0  0  0  0  0  0  0  0  0  0
    1.7088   -0.8908   29.8003 H   0  0  0  0  0  0  0  0  0  0  0  0
    0.2121    1.5244   30.4486 H   0  0  0  0  0  0  0  0  0  0  0  0
    1.7339    1.3630   29.5546 H   0  0  0  0  0  0  0  0  0  0  0  0
  1  2  1  0
  2  3  1  0
  3  4  1  0
  4  5  1  0
  5  6  1  0
  4  7  1  0
  7  8  2  0
  7  9  2  0
  7 10  1  0
 10 11  1  0
 11 12  1  0
 12 13  1  0
 13 14  1  0
 14 10  1  0
  1 15  1  0
  1 16  1  0
  1 17  1  0
  2 18  1  0
  2 19  1  0
  5 20  1  0
  5 21  1  0
  6 22  1  0
  6 23  1  0
  6 24  1  0
  8 25  1  0
 11 26  1  0
 11 27  1  0
 12 28  1  0
 12 29  1  0
 13 30  1  0
 13 31  1  0
 14 32  1  0
 14 33  1  0
M  END
>  <Energy>  (111) 
-126.68039689241981

>  <compound_id>  (111) 
52701

>  <target_id>  (111) 
1

>  <reference_id>  (111) 
53

>  <inspiration_ids>  (111) 
[53, 13]

>  <energy_score>  (111) 
-60.62816855333582

>  <distance_score>  (111) 
1.630352479619084

>  <path>  (111) 
/opt/xchem-fragalysis-2/maxwin/BulkDock/SCRATCH/511025/C52701-P53/C52701-P53.minimised.mol

>  <scratch_subdir>  (111) 
/opt/xchem-fragalysis-2/maxwin/BulkDock/SCRATCH/511025/C52701-P53

>  <fragmenstein_runtime>  (111) 
2.130720853805542

>  <fragmenstein_outcome>  (111) 
too moved

>  <fragmenstein_mode>  (111) 
expansion

>  <fragmenstein_error>  (111) 


$$$$
C52701-P13
     RDKit          3D

 33 33  0  0  0  0  0  0  0  0999 V2000
   -4.1137    2.1667   26.0207 C   0  0  0  0  0  0  0  0  0  0  0  0
   -2.8667    1.4047   26.3997 C   0  0  0  0  0  0  0  0  0  0  0  0
   -1.7108    2.1818   26.1137 O   0  0  0  0  0  0  0  0  0  0  0  0
   -1.3773    2.9598   27.2970 N   0  0  0  0  0  0  0  0  0  0  0  0
   -1.8724    4.3070   27.0704 C   0  0  0  0  0  0  0  0  0  0  0  0
   -1.2273    5.0445   25.9004 C   0  0  0  0  0  0  0  0  0  0  0  0
    0.1878    2.7354   27.8518 S   0  0  0  0  0  0  0  0  0  0  0  0
    1.0775    2.6074   26.6234 N   0  0  0  0  0  0  0  0  0  0  0  0
    0.3475    3.7174   28.8933 O   0  0  0  0  0  0  0  0  0  0  0  0
    0.2515    1.2278   28.6068 N   0  0  0  0  0  0  0  0  0  0  0  0
   -0.4919    0.0552   28.1479 C   0  0  0  0  0  0  0  0  0  0  0  0
    0.2150   -1.1488   28.7346 C   0  0  0  0  0  0  0  0  0  0  0  0
    1.6507   -0.6917   28.7641 C   0  0  0  0  0  0  0  0  0  0  0  0
    1.5339    0.7740   29.1338 C   0  0  0  0  0  0  0  0  0  0  0  0
   -4.4777    2.7147   26.8831 H   0  0  0  0  0  0  0  0  0  0  0  0
   -3.9361    2.8848   25.2149 H   0  0  0  0  0  0  0  0  0  0  0  0
   -4.9292    1.5040   25.7367 H   0  0  0  0  0  0  0  0  0  0  0  0
   -2.9140    1.1323   27.4529 H   0  0  0  0  0  0  0  0  0  0  0  0
   -2.7771    0.4799   25.8327 H   0  0  0  0  0  0  0  0  0  0  0  0
   -1.7529    4.9103   27.9750 H   0  0  0  0  0  0  0  0  0  0  0  0
   -2.9401    4.2461   26.8993 H   0  0  0  0  0  0  0  0  0  0  0  0
   -0.1735    5.2613   26.0970 H   0  0  0  0  0  0  0  0  0  0  0  0
   -1.3010    4.4749   24.9687 H   0  0  0  0  0  0  0  0  0  0  0  0
   -1.7256    6.0053   25.7383 H   0  0  0  0  0  0  0  0  0  0  0  0
    0.9875    3.4438   26.0544 H   0  0  0  0  0  0  0  0  0  0  0  0
   -1.5230    0.0722   28.5037 H   0  0  0  0  0  0  0  0  0  0  0  0
   -0.4760   -0.0121   27.0580 H   0  0  0  0  0  0  0  0  0  0  0  0
   -0.1408   -1.3433   29.7537 H   0  0  0  0  0  0  0  0  0  0  0  0
    0.0725   -2.0560   28.1419 H   0  0  0  0  0  0  0  0  0  0  0  0
    2.2549   -1.2583   29.4783 H   0  0  0  0  0  0  0  0  0  0  0  0
    2.1008   -0.7978   27.7697 H   0  0  0  0  0  0  0  0  0  0  0  0
    1.5281    0.8915   30.2236 H   0  0  0  0  0  0  0  0  0  0  0  0
    2.3947    1.3318   28.7493 H   0  0  0  0  0  0  0  0  0  0  0  0
  1  2  1  0
  2  3  1  0
  3  4  1  0
  4  5  1  0
  5  6  1  0
  4  7  1  0
  7  8  2  0
  7  9  2  0
  7 10  1  0
 10 11  1  0
 11 12  1  0
 12 13  1  0
 13 14  1  0
 14 10  1  0
  1 15  1  0
  1 16  1  0
  1 17  1  0
  2 18  1  0
  2 19  1  0
  5 20  1  0
  5 21  1  0
  6 22  1  0
  6 23  1  0
  6 24  1  0
  8 25  1  0
 11 26  1  0
 11 27  1  0
 12 28  1  0
 12 29  1  0
 13 30  1  0
 13 31  1  0
 14 32  1  0
 14 33  1  0
M  END
>  <Energy>  (112) 
-123.76150884991009

>  <compound_id>  (112) 
52701

>  <target_id>  (112) 
1

>  <reference_id>  (112) 
13

>  <inspiration_ids>  (112) 
[53, 13]

>  <energy_score>  (112) 
-57.709280510826346

>  <distance_score>  (112) 
1.5726899501212699

>  <path>  (112) 
/opt/xchem-fragalysis-2/maxwin/BulkDock/SCRATCH/511025/C52701-P13/C52701-P13.minimised.mol

>  <scratch_subdir>  (112) 
/opt/xchem-fragalysis-2/maxwin/BulkDock/SCRATCH/511025/C52701-P13

>  <fragmenstein_runtime>  (112) 
2.2549006938934326

>  <fragmenstein_outcome>  (112) 
too moved

>  <fragmenstein_mode>  (112) 
expansion

>  <fragmenstein_error>  (112) 


$$$$
C52702-P53
     RDKit          3D

 33 33  0  0  0  0  0  0  0  0999 V2000
   -3.2589   -0.7597   33.4074 C   0  0  0  0  0  0  0  0  0  0  0  0
   -1.9579   -0.8276   33.1006 C   0  0  0  0  0  0  0  0  0  0  0  0
   -1.4013   -0.7189   31.7105 C   0  0  0  0  0  0  0  0  0  0  0  0
   -1.2322   -2.0918   31.0856 C   0  0  0  0  0  0  0  0  0  0  0  0
   -0.2766   -2.0520   29.9227 C   0  0  0  0  0  0  0  0  0  0  0  0
    0.8656   -2.5148   30.0695 O   0  0  0  0  0  0  0  0  0  0  0  0
   -0.6857   -1.5118   28.5458 C   0  0  0  0  0  0  0  0  0  0  0  0
   -2.1721   -1.3770   28.2725 C   0  0  0  0  0  0  0  0  0  0  0  0
   -0.2028   -2.6375   27.7829 O   0  0  0  0  0  0  0  0  0  0  0  0
    0.0182   -0.2578   28.0267 C   0  0  0  0  0  0  0  0  0  0  0  0
   -0.7466    1.0461   28.2192 C   0  0  0  0  0  0  0  0  0  0  0  0
    0.2969    2.1182   27.9959 C   0  0  0  0  0  0  0  0  0  0  0  0
    1.5924    1.4382   28.0624 N   0  0  0  0  0  0  0  0  0  0  0  0
    1.3714    0.0962   28.6068 C   0  0  0  0  0  0  0  0  0  0  0  0
   -4.0220   -0.6368   32.6495 H   0  0  0  0  0  0  0  0  0  0  0  0
   -3.5874   -0.8756   34.4371 H   0  0  0  0  0  0  0  0  0  0  0  0
   -1.2392   -0.9969   33.9020 H   0  0  0  0  0  0  0  0  0  0  0  0
   -0.4452   -0.1838   31.7565 H   0  0  0  0  0  0  0  0  0  0  0  0
   -2.0633   -0.1068   31.0886 H   0  0  0  0  0  0  0  0  0  0  0  0
   -2.1898   -2.5187   30.7752 H   0  0  0  0  0  0  0  0  0  0  0  0
   -0.8159   -2.7970   31.8177 H   0  0  0  0  0  0  0  0  0  0  0  0
   -2.6160   -0.5451   28.8189 H   0  0  0  0  0  0  0  0  0  0  0  0
   -2.6829   -2.2707   28.6184 H   0  0  0  0  0  0  0  0  0  0  0  0
   -2.3831   -1.2709   27.2035 H   0  0  0  0  0  0  0  0  0  0  0  0
    0.7411   -2.7487   28.0093 H   0  0  0  0  0  0  0  0  0  0  0  0
    0.1537   -0.3849   26.9454 H   0  0  0  0  0  0  0  0  0  0  0  0
   -1.1293    1.1236   29.2418 H   0  0  0  0  0  0  0  0  0  0  0  0
   -1.5816    1.1581   27.5199 H   0  0  0  0  0  0  0  0  0  0  0  0
    0.2190    2.9019   28.7570 H   0  0  0  0  0  0  0  0  0  0  0  0
    0.1834    2.5862   27.0129 H   0  0  0  0  0  0  0  0  0  0  0  0
    2.2590    1.9634   28.6254 H   0  0  0  0  0  0  0  0  0  0  0  0
    1.3554    0.1426   29.7013 H   0  0  0  0  0  0  0  0  0  0  0  0
    2.1586   -0.5925   28.2874 H   0  0  0  0  0  0  0  0  0  0  0  0
  1  2  2  0
  2  3  1  0
  3  4  1  0
  4  5  1  0
  5  6  2  0
  5  7  1  0
  7  8  1  0
  7  9  1  0
  7 10  1  0
 10 11  1  0
 11 12  1  0
 12 13  1  0
 13 14  1  0
 14 10  1  0
  1 15  1  0
  1 16  1  0
  2 17  1  0
  3 18  1  0
  3 19  1  0
  4 20  1  0
  4 21  1  0
  8 22  1  0
  8 23  1  0
  8 24  1  0
  9 25  1  0
 10 26  1  0
 11 27  1  0
 11 28  1  0
 12 29  1  0
 12 30  1  0
 13 31  1  0
 14 32  1  0
 14 33  1  0
M  END
>  <Energy>  (113) 
52.263066552578493

>  <compound_id>  (113) 
52702

>  <target_id>  (113) 
1

>  <reference_id>  (113) 
53

>  <inspiration_ids>  (113) 
[53, 13]

>  <energy_score>  (113) 
-14.752908310858999

>  <distance_score>  (113) 
1.9787638605277007

>  <path>  (113) 
/opt/xchem-fragalysis-2/maxwin/BulkDock/SCRATCH/511025/C52702-P53/C52702-P53.minimised.mol

>  <scratch_subdir>  (113) 
/opt/xchem-fragalysis-2/maxwin/BulkDock/SCRATCH/511025/C52702-P53

>  <fragmenstein_runtime>  (113) 
7.108856201171875

>  <fragmenstein_outcome>  (113) 
too moved

>  <fragmenstein_mode>  (113) 
expansion

>  <fragmenstein_error>  (113) 


$$$$
C52702-P13
     RDKit          3D

 33 33  0  0  0  0  0  0  0  0999 V2000
   -3.3598   -0.9652   33.3307 C   0  0  0  0  0  0  0  0  0  0  0  0
   -2.0370   -1.1093   33.1876 C   0  0  0  0  0  0  0  0  0  0  0  0
   -1.2917   -0.9180   31.8987 C   0  0  0  0  0  0  0  0  0  0  0  0
   -1.0384   -2.2541   31.2224 C   0  0  0  0  0  0  0  0  0  0  0  0
   -0.1041   -2.1173   30.0444 C   0  0  0  0  0  0  0  0  0  0  0  0
    1.0655   -2.5148   30.1507 O   0  0  0  0  0  0  0  0  0  0  0  0
   -0.5742   -1.5579   28.6957 C   0  0  0  0  0  0  0  0  0  0  0  0
   -2.0719   -1.4903   28.5044 C   0  0  0  0  0  0  0  0  0  0  0  0
   -0.1095   -2.6690   27.8962 O   0  0  0  0  0  0  0  0  0  0  0  0
    0.1271   -0.2849   28.1918 C   0  0  0  0  0  0  0  0  0  0  0  0
   -0.7967    0.7532   27.5378 C   0  0  0  0  0  0  0  0  0  0  0  0
    0.0056    2.0355   27.5473 C   0  0  0  0  0  0  0  0  0  0  0  0
    1.0977    1.8113   28.4974 N   0  0  0  0  0  0  0  0  0  0  0  0
    0.8010    0.5842   29.2371 C   0  0  0  0  0  0  0  0  0  0  0  0
   -4.0038   -0.7126   32.4988 H   0  0  0  0  0  0  0  0  0  0  0  0
   -3.8307   -1.1492   34.2932 H   0  0  0  0  0  0  0  0  0  0  0  0
   -1.4473   -1.4082   34.0539 H   0  0  0  0  0  0  0  0  0  0  0  0
   -0.3444   -0.4110   32.1175 H   0  0  0  0  0  0  0  0  0  0  0  0
   -1.8490   -0.2491   31.2342 H   0  0  0  0  0  0  0  0  0  0  0  0
   -1.9679   -2.7410   30.9138 H   0  0  0  0  0  0  0  0  0  0  0  0
   -0.5646   -2.9476   31.9304 H   0  0  0  0  0  0  0  0  0  0  0  0
   -2.5159   -0.6998   29.1105 H   0  0  0  0  0  0  0  0  0  0  0  0
   -2.5058   -2.4308   28.8402 H   0  0  0  0  0  0  0  0  0  0  0  0
   -2.3620   -1.3772   27.4555 H   0  0  0  0  0  0  0  0  0  0  0  0
    0.8461   -2.7616   28.0805 H   0  0  0  0  0  0  0  0  0  0  0  0
    0.8889   -0.5655   27.4505 H   0  0  0  0  0  0  0  0  0  0  0  0
   -1.6954    0.9436   28.1343 H   0  0  0  0  0  0  0  0  0  0  0  0
   -1.1163    0.4667   26.5351 H   0  0  0  0  0  0  0  0  0  0  0  0
   -0.6159    2.8853   27.8498 H   0  0  0  0  0  0  0  0  0  0  0  0
    0.4227    2.2555   26.5602 H   0  0  0  0  0  0  0  0  0  0  0  0
    1.2061    2.6101   29.1205 H   0  0  0  0  0  0  0  0  0  0  0  0
    0.1308    0.8123   30.0721 H   0  0  0  0  0  0  0  0  0  0  0  0
    1.7194    0.1381   29.6285 H   0  0  0  0  0  0  0  0  0  0  0  0
  1  2  2  0
  2  3  1  0
  3  4  1  0
  4  5  1  0
  5  6  2  0
  5  7  1  0
  7  8  1  0
  7  9  1  0
  7 10  1  0
 10 11  1  0
 11 12  1  0
 12 13  1  0
 13 14  1  0
 14 10  1  0
  1 15  1  0
  1 16  1  0
  2 17  1  0
  3 18  1  0
  3 19  1  0
  4 20  1  0
  4 21  1  0
  8 22  1  0
  8 23  1  0
  8 24  1  0
  9 25  1  0
 10 26  1  0
 11 27  1  0
 11 28  1  0
 12 29  1  0
 12 30  1  0
 13 31  1  0
 14 32  1  0
 14 33  1  0
M  END
>  <Energy>  (114) 
55.031622108390195

>  <compound_id>  (114) 
52702

>  <target_id>  (114) 
1

>  <reference_id>  (114) 
13

>  <inspiration_ids>  (114) 
[53, 13]

>  <energy_score>  (114) 
-11.984352755047382

>  <distance_score>  (114) 
1.8252537717979633

>  <path>  (114) 
/opt/xchem-fragalysis-2/maxwin/BulkDock/SCRATCH/511025/C52702-P13/C52702-P13.minimised.mol

>  <scratch_subdir>  (114) 
/opt/xchem-fragalysis-2/maxwin/BulkDock/SCRATCH/511025/C52702-P13

>  <fragmenstein_runtime>  (114) 
7.717421293258667

>  <fragmenstein_outcome>  (114) 
too moved

>  <fragmenstein_mode>  (114) 
expansion

>  <fragmenstein_error>  (114) 


$$$$
C52710-P53
     RDKit          3D

 35 35  0  0  0  0  0  0  0  0999 V2000
    0.5044    3.1792   29.7867 C   0  0  0  0  0  0  0  0  0  0  0  0
    0.2639    1.6834   29.9766 C   0  0  0  0  0  0  0  0  0  0  0  0
    0.3225    1.1951   31.4356 C   0  0  0  0  0  0  0  0  0  0  0  0
    0.3390   -0.3433   31.6565 C   0  0  0  0  0  0  0  0  0  0  0  0
   -0.8696   -1.1602   31.1701 C   0  0  0  0  0  0  0  0  0  0  0  0
   -0.5997   -2.1392   30.0126 C   0  0  0  0  0  0  0  0  0  0  0  0
   -1.8263   -2.7776   29.7010 O   0  0  0  0  0  0  0  0  0  0  0  0
    0.1195   -1.4443   28.8500 C   0  0  0  0  0  0  0  0  0  0  0  0
    1.3573   -1.3999   28.8356 O   0  0  0  0  0  0  0  0  0  0  0  0
   -0.7044   -0.8526   27.7119 C   0  0  0  0  0  0  0  0  0  0  0  0
   -2.1028   -0.3564   27.9845 C   0  0  0  0  0  0  0  0  0  0  0  0
   -2.3134    0.7076   26.9288 C   0  0  0  0  0  0  0  0  0  0  0  0
   -0.9555    1.3530   26.8141 C   0  0  0  0  0  0  0  0  0  0  0  0
   -0.0083    0.2699   27.0470 N   0  0  0  0  0  0  0  0  0  0  0  0
    1.5364    3.4290   30.0560 H   0  0  0  0  0  0  0  0  0  0  0  0
    0.3486    3.4889   28.7513 H   0  0  0  0  0  0  0  0  0  0  0  0
   -0.1478    3.7630   30.4359 H   0  0  0  0  0  0  0  0  0  0  0  0
    1.0431    1.1600   29.4221 H   0  0  0  0  0  0  0  0  0  0  0  0
   -0.7120    1.4273   29.5797 H   0  0  0  0  0  0  0  0  0  0  0  0
   -0.5143    1.6182   31.9985 H   0  0  0  0  0  0  0  0  0  0  0  0
    1.2320    1.6000   31.8981 H   0  0  0  0  0  0  0  0  0  0  0  0
    0.4066   -0.4879   32.7439 H   0  0  0  0  0  0  0  0  0  0  0  0
    1.2758   -0.7518   31.2632 H   0  0  0  0  0  0  0  0  0  0  0  0
   -1.2399   -1.7592   32.0143 H   0  0  0  0  0  0  0  0  0  0  0  0
   -1.7042   -0.4919   30.9358 H   0  0  0  0  0  0  0  0  0  0  0  0
    0.0750   -2.9288   30.3652 H   0  0  0  0  0  0  0  0  0  0  0  0
   -1.7647   -3.1906   28.8122 H   0  0  0  0  0  0  0  0  0  0  0  0
   -0.7949   -1.6745   27.0133 H   0  0  0  0  0  0  0  0  0  0  0  0
   -2.8330   -1.1618   27.8844 H   0  0  0  0  0  0  0  0  0  0  0  0
   -2.2201    0.0805   28.9757 H   0  0  0  0  0  0  0  0  0  0  0  0
   -2.5935    0.2360   25.9831 H   0  0  0  0  0  0  0  0  0  0  0  0
   -3.0937    1.4243   27.1989 H   0  0  0  0  0  0  0  0  0  0  0  0
   -0.8077    1.8238   25.8392 H   0  0  0  0  0  0  0  0  0  0  0  0
   -0.8579    2.1405   27.5586 H   0  0  0  0  0  0  0  0  0  0  0  0
    0.8393    0.5483   27.5342 H   0  0  0  0  0  0  0  0  0  0  0  0
  1  2  1  0
  2  3  1  0
  3  4  1  0
  4  5  1  0
  5  6  1  0
  6  7  1  0
  6  8  1  0
  8  9  2  0
  8 10  1  0
 10 11  1  0
 11 12  1  0
 12 13  1  0
 13 14  1  0
 14 10  1  0
  1 15  1  0
  1 16  1  0
  1 17  1  0
  2 18  1  0
  2 19  1  0
  3 20  1  0
  3 21  1  0
  4 22  1  0
  4 23  1  0
  5 24  1  0
  5 25  1  0
  6 26  1  0
  7 27  1  0
 10 28  1  0
 11 29  1  0
 11 30  1  0
 12 31  1  0
 12 32  1  0
 13 33  1  0
 13 34  1  0
 14 35  1  0
M  END
>  <Energy>  (115) 
78.03204843551093

>  <compound_id>  (115) 
52710

>  <target_id>  (115) 
1

>  <reference_id>  (115) 
53

>  <inspiration_ids>  (115) 
[53, 13]

>  <energy_score>  (115) 
-38.50603893395544

>  <distance_score>  (115) 
2.3048791336523675

>  <path>  (115) 
/opt/xchem-fragalysis-2/maxwin/BulkDock/SCRATCH/511025/C52710-P53/C52710-P53.minimised.mol

>  <scratch_subdir>  (115) 
/opt/xchem-fragalysis-2/maxwin/BulkDock/SCRATCH/511025/C52710-P53

>  <fragmenstein_runtime>  (115) 
3.008518695831299

>  <fragmenstein_outcome>  (115) 
too moved

>  <fragmenstein_mode>  (115) 
expansion

>  <fragmenstein_error>  (115) 


$$$$
C52710-P13
     RDKit          3D

 35 35  0  0  0  0  0  0  0  0999 V2000
    1.2491    3.0194   28.9987 C   0  0  0  0  0  0  0  0  0  0  0  0
    0.3241    2.2832   29.9585 C   0  0  0  0  0  0  0  0  0  0  0  0
    0.8910    0.9872   30.5971 C   0  0  0  0  0  0  0  0  0  0  0  0
   -0.2057    0.1306   31.3005 C   0  0  0  0  0  0  0  0  0  0  0  0
    0.1625   -1.3560   31.5244 C   0  0  0  0  0  0  0  0  0  0  0  0
   -0.4424   -2.3888   30.5505 C   0  0  0  0  0  0  0  0  0  0  0  0
   -1.8222   -2.5904   30.8005 O   0  0  0  0  0  0  0  0  0  0  0  0
    0.0726   -2.1703   29.1224 C   0  0  0  0  0  0  0  0  0  0  0  0
    1.1690   -2.6599   28.8012 O   0  0  0  0  0  0  0  0  0  0  0  0
   -0.6850   -1.3000   28.1283 C   0  0  0  0  0  0  0  0  0  0  0  0
   -2.0925   -0.8128   28.3640 C   0  0  0  0  0  0  0  0  0  0  0  0
   -2.1620    0.5931   27.7875 C   0  0  0  0  0  0  0  0  0  0  0  0
   -0.8378    0.7969   27.1239 C   0  0  0  0  0  0  0  0  0  0  0  0
    0.0838   -0.0810   27.8279 N   0  0  0  0  0  0  0  0  0  0  0  0
    1.5890    2.3689   28.1884 H   0  0  0  0  0  0  0  0  0  0  0  0
    0.7373    3.8817   28.5606 H   0  0  0  0  0  0  0  0  0  0  0  0
    2.1352    3.3825   29.5291 H   0  0  0  0  0  0  0  0  0  0  0  0
   -0.5763    2.0478   29.4101 H   0  0  0  0  0  0  0  0  0  0  0  0
    0.0512    2.9706   30.7668 H   0  0  0  0  0  0  0  0  0  0  0  0
    1.6527    1.2615   31.3378 H   0  0  0  0  0  0  0  0  0  0  0  0
    1.4160    0.3921   29.8466 H   0  0  0  0  0  0  0  0  0  0  0  0
   -1.1560    0.2172   30.7750 H   0  0  0  0  0  0  0  0  0  0  0  0
   -0.3752    0.5887   32.2841 H   0  0  0  0  0  0  0  0  0  0  0  0
    1.2553   -1.4532   31.5287 H   0  0  0  0  0  0  0  0  0  0  0  0
   -0.1803   -1.6220   32.5333 H   0  0  0  0  0  0  0  0  0  0  0  0
   -0.0026   -3.3554   30.8331 H   0  0  0  0  0  0  0  0  0  0  0  0
   -2.2034   -1.7531   31.1108 H   0  0  0  0  0  0  0  0  0  0  0  0
   -0.7340   -1.9193   27.2454 H   0  0  0  0  0  0  0  0  0  0  0  0
   -2.7943   -1.4667   27.8396 H   0  0  0  0  0  0  0  0  0  0  0  0
   -2.3968   -0.7690   29.4036 H   0  0  0  0  0  0  0  0  0  0  0  0
   -2.9665    0.7121   27.0574 H   0  0  0  0  0  0  0  0  0  0  0  0
   -2.3385    1.3197   28.5810 H   0  0  0  0  0  0  0  0  0  0  0  0
   -0.9760    0.4659   26.1108 H   0  0  0  0  0  0  0  0  0  0  0  0
   -0.5184    1.8402   27.0972 H   0  0  0  0  0  0  0  0  0  0  0  0
    0.8717   -0.3368   27.2301 H   0  0  0  0  0  0  0  0  0  0  0  0
  1  2  1  0
  2  3  1  0
  3  4  1  0
  4  5  1  0
  5  6  1  0
  6  7  1  0
  6  8  1  0
  8  9  2  0
  8 10  1  0
 10 11  1  0
 11 12  1  0
 12 13  1  0
 13 14  1  0
 14 10  1  0
  1 15  1  0
  1 16  1  0
  1 17  1  0
  2 18  1  0
  2 19  1  0
  3 20  1  0
  3 21  1  0
  4 22  1  0
  4 23  1  0
  5 24  1  0
  5 25  1  0
  6 26  1  0
  7 27  1  0
 10 28  1  0
 11 29  1  0
 11 30  1  0
 12 31  1  0
 12 32  1  0
 13 33  1  0
 13 34  1  0
 14 35  1  0
M  END
>  <Energy>  (116) 
81.724993868084184

>  <compound_id>  (116) 
52710

>  <target_id>  (116) 
1

>  <reference_id>  (116) 
13

>  <inspiration_ids>  (116) 
[53, 13]

>  <energy_score>  (116) 
-34.81309350138133

>  <distance_score>  (116) 
2.179564335587746

>  <path>  (116) 
/opt/xchem-fragalysis-2/maxwin/BulkDock/SCRATCH/511025/C52710-P13/C52710-P13.minimised.mol

>  <scratch_subdir>  (116) 
/opt/xchem-fragalysis-2/maxwin/BulkDock/SCRATCH/511025/C52710-P13

>  <fragmenstein_runtime>  (116) 
2.746598720550537

>  <fragmenstein_outcome>  (116) 
too moved

>  <fragmenstein_mode>  (116) 
expansion

>  <fragmenstein_error>  (116) 


$$$$
C52711-P53
     RDKit          3D

 34 34  0  0  0  0  0  0  0  0999 V2000
    0.9388    4.0281   27.1411 C   0  0  0  0  0  0  0  0  0  0  0  0
   -0.4904    4.2644   26.6648 C   0  0  0  0  0  0  0  0  0  0  0  0
   -0.5860    5.5573   25.8704 C   0  0  0  0  0  0  0  0  0  0  0  0
   -0.8558    3.1714   25.8089 O   0  0  0  0  0  0  0  0  0  0  0  0
   -2.2623    2.9061   25.8040 C   0  0  0  0  0  0  0  0  0  0  0  0
   -2.6045    1.6367   26.5981 C   0  0  0  0  0  0  0  0  0  0  0  0
   -3.9564    1.7679   27.0205 O   0  0  0  0  0  0  0  0  0  0  0  0
   -1.5940    1.4487   27.7502 C   0  0  0  0  0  0  0  0  0  0  0  0
   -1.6793    0.2907   28.6463 N   0  0  0  0  0  0  0  0  0  0  0  0
   -0.5066    0.3005   29.5474 C   0  0  0  0  0  0  0  0  0  0  0  0
    0.4047   -0.8129   29.0750 C   0  0  0  0  0  0  0  0  0  0  0  0
   -0.5934   -1.8375   28.5897 C   0  0  0  0  0  0  0  0  0  0  0  0
   -1.6316   -0.9786   27.8904 C   0  0  0  0  0  0  0  0  0  0  0  0
    1.6228    3.9198   26.2920 H   0  0  0  0  0  0  0  0  0  0  0  0
    1.2880    4.8522   27.7709 H   0  0  0  0  0  0  0  0  0  0  0  0
    1.0078    3.1012   27.7188 H   0  0  0  0  0  0  0  0  0  0  0  0
   -1.1477    4.3184   27.5402 H   0  0  0  0  0  0  0  0  0  0  0  0
   -1.6034    5.7203   25.5014 H   0  0  0  0  0  0  0  0  0  0  0  0
    0.0619    5.5231   24.9873 H   0  0  0  0  0  0  0  0  0  0  0  0
   -0.2989    6.4193   26.4804 H   0  0  0  0  0  0  0  0  0  0  0  0
   -2.5580    2.7682   24.7599 H   0  0  0  0  0  0  0  0  0  0  0  0
   -2.8359    3.7659   26.1622 H   0  0  0  0  0  0  0  0  0  0  0  0
   -2.5508    0.7770   25.9264 H   0  0  0  0  0  0  0  0  0  0  0  0
   -3.9853    2.3293   27.8241 H   0  0  0  0  0  0  0  0  0  0  0  0
   -1.6765    2.3320   28.3940 H   0  0  0  0  0  0  0  0  0  0  0  0
   -0.5878    1.4362   27.3139 H   0  0  0  0  0  0  0  0  0  0  0  0
    0.0175    1.2615   29.6093 H   0  0  0  0  0  0  0  0  0  0  0  0
   -0.8655    0.0733   30.5590 H   0  0  0  0  0  0  0  0  0  0  0  0
    1.0390   -0.4729   28.2478 H   0  0  0  0  0  0  0  0  0  0  0  0
    1.0446   -1.2000   29.8727 H   0  0  0  0  0  0  0  0  0  0  0  0
   -0.1385   -2.5810   27.9322 H   0  0  0  0  0  0  0  0  0  0  0  0
   -1.0444   -2.3636   29.4402 H   0  0  0  0  0  0  0  0  0  0  0  0
   -1.3100   -0.8208   26.8584 H   0  0  0  0  0  0  0  0  0  0  0  0
   -2.6129   -1.4570   27.8738 H   0  0  0  0  0  0  0  0  0  0  0  0
  1  2  1  0
  2  3  1  0
  2  4  1  0
  4  5  1  0
  5  6  1  0
  6  7  1  0
  6  8  1  0
  8  9  1  0
  9 10  1  0
 10 11  1  0
 11 12  1  0
 12 13  1  0
 13  9  1  0
  1 14  1  0
  1 15  1  0
  1 16  1  0
  2 17  1  0
  3 18  1  0
  3 19  1  0
  3 20  1  0
  5 21  1  0
  5 22  1  0
  6 23  1  0
  7 24  1  0
  8 25  1  0
  8 26  1  0
 10 27  1  0
 10 28  1  0
 11 29  1  0
 11 30  1  0
 12 31  1  0
 12 32  1  0
 13 33  1  0
 13 34  1  0
M  END
>  <Energy>  (117) 
66.123930350045072

>  <compound_id>  (117) 
52711

>  <target_id>  (117) 
1

>  <reference_id>  (117) 
53

>  <inspiration_ids>  (117) 
[53, 13]

>  <energy_score>  (117) 
-15.050818870292403

>  <distance_score>  (117) 
1.3396985474035485

>  <path>  (117) 
/opt/xchem-fragalysis-2/maxwin/BulkDock/SCRATCH/511025/C52711-P53/C52711-P53.minimised.mol

>  <scratch_subdir>  (117) 
/opt/xchem-fragalysis-2/maxwin/BulkDock/SCRATCH/511025/C52711-P53

>  <fragmenstein_runtime>  (117) 
20.51470375061035

>  <fragmenstein_outcome>  (117) 
too moved

>  <fragmenstein_mode>  (117) 
expansion

>  <fragmenstein_error>  (117) 


$$$$
C52711-P13
     RDKit          3D

 34 34  0  0  0  0  0  0  0  0999 V2000
    0.9266    4.0834   27.1269 C   0  0  0  0  0  0  0  0  0  0  0  0
   -0.4932    4.3017   26.6151 C   0  0  0  0  0  0  0  0  0  0  0  0
   -0.5886    5.5937   25.8201 C   0  0  0  0  0  0  0  0  0  0  0  0
   -0.8217    3.2041   25.7493 O   0  0  0  0  0  0  0  0  0  0  0  0
   -2.2209    2.9093   25.7150 C   0  0  0  0  0  0  0  0  0  0  0  0
   -2.5597    1.6587   26.5411 C   0  0  0  0  0  0  0  0  0  0  0  0
   -3.9030    1.8263   26.9706 O   0  0  0  0  0  0  0  0  0  0  0  0
   -1.5327    1.4762   27.6807 C   0  0  0  0  0  0  0  0  0  0  0  0
   -1.6396    0.3692   28.6383 N   0  0  0  0  0  0  0  0  0  0  0  0
   -0.4549    0.3924   29.5254 C   0  0  0  0  0  0  0  0  0  0  0  0
    0.4229   -0.7663   29.1008 C   0  0  0  0  0  0  0  0  0  0  0  0
   -0.6063   -1.7875   28.6783 C   0  0  0  0  0  0  0  0  0  0  0  0
   -1.6290   -0.9362   27.9488 C   0  0  0  0  0  0  0  0  0  0  0  0
    1.6333    3.9888   26.2949 H   0  0  0  0  0  0  0  0  0  0  0  0
    1.2478    4.9096   27.7685 H   0  0  0  0  0  0  0  0  0  0  0  0
    0.9945    3.1550   27.7021 H   0  0  0  0  0  0  0  0  0  0  0  0
   -1.1745    4.3501   27.4721 H   0  0  0  0  0  0  0  0  0  0  0  0
   -1.6027    5.7466   25.4372 H   0  0  0  0  0  0  0  0  0  0  0  0
    0.0725    5.5663   24.9467 H   0  0  0  0  0  0  0  0  0  0  0  0
   -0.3196    6.4582   26.4348 H   0  0  0  0  0  0  0  0  0  0  0  0
   -2.4844    2.7222   24.6684 H   0  0  0  0  0  0  0  0  0  0  0  0
   -2.8216    3.7739   26.0225 H   0  0  0  0  0  0  0  0  0  0  0  0
   -2.5316    0.7831   25.8897 H   0  0  0  0  0  0  0  0  0  0  0  0
   -3.9034    2.3797   27.7802 H   0  0  0  0  0  0  0  0  0  0  0  0
   -1.5707    2.3878   28.2845 H   0  0  0  0  0  0  0  0  0  0  0  0
   -0.5367    1.4128   27.2236 H   0  0  0  0  0  0  0  0  0  0  0  0
    0.0943    1.3411   29.5335 H   0  0  0  0  0  0  0  0  0  0  0  0
   -0.8074    0.2250   30.5509 H   0  0  0  0  0  0  0  0  0  0  0  0
    1.0561   -0.4845   28.2511 H   0  0  0  0  0  0  0  0  0  0  0  0
    1.0620   -1.1291   29.9106 H   0  0  0  0  0  0  0  0  0  0  0  0
   -0.1791   -2.5753   28.0545 H   0  0  0  0  0  0  0  0  0  0  0  0
   -1.0609   -2.2578   29.5590 H   0  0  0  0  0  0  0  0  0  0  0  0
   -1.3109   -0.8219   26.9147 H   0  0  0  0  0  0  0  0  0  0  0  0
   -2.6176   -1.3976   27.9498 H   0  0  0  0  0  0  0  0  0  0  0  0
  1  2  1  0
  2  3  1  0
  2  4  1  0
  4  5  1  0
  5  6  1  0
  6  7  1  0
  6  8  1  0
  8  9  1  0
  9 10  1  0
 10 11  1  0
 11 12  1  0
 12 13  1  0
 13  9  1  0
  1 14  1  0
  1 15  1  0
  1 16  1  0
  2 17  1  0
  3 18  1  0
  3 19  1  0
  3 20  1  0
  5 21  1  0
  5 22  1  0
  6 23  1  0
  7 24  1  0
  8 25  1  0
  8 26  1  0
 10 27  1  0
 10 28  1  0
 11 29  1  0
 11 30  1  0
 12 31  1  0
 12 32  1  0
 13 33  1  0
 13 34  1  0
M  END
>  <Energy>  (118) 
66.651210808869408

>  <compound_id>  (118) 
52711

>  <target_id>  (118) 
1

>  <reference_id>  (118) 
13

>  <inspiration_ids>  (118) 
[53, 13]

>  <energy_score>  (118) 
-14.523538411467996

>  <distance_score>  (118) 
1.3452155956026355

>  <path>  (118) 
/opt/xchem-fragalysis-2/maxwin/BulkDock/SCRATCH/511025/C52711-P13/C52711-P13.minimised.mol

>  <scratch_subdir>  (118) 
/opt/xchem-fragalysis-2/maxwin/BulkDock/SCRATCH/511025/C52711-P13

>  <fragmenstein_runtime>  (118) 
19.52327537536621

>  <fragmenstein_outcome>  (118) 
too moved

>  <fragmenstein_mode>  (118) 
expansion

>  <fragmenstein_error>  (118) 


$$$$
C52718-P53
     RDKit          3D

 40 40  0  0  0  0  0  0  0  0999 V2000
   -3.0521   -1.4180   32.5300 C   0  0  0  0  0  0  0  0  0  0  0  0
   -2.4515   -0.4024   31.5738 C   0  0  0  0  0  0  0  0  0  0  0  0
   -1.7188   -0.9184   30.3908 N   0  0  0  0  0  0  0  0  0  0  0  0
   -1.0076    0.2143   29.6475 C   0  0  0  0  0  0  0  0  0  0  0  0
   -1.4435    0.5770   28.1941 C   0  0  0  0  0  0  0  0  0  0  0  0
   -2.2328   -0.4583   27.4329 C   0  0  0  0  0  0  0  0  0  0  0  0
   -2.0034    1.9316   28.0517 C   0  0  0  0  0  0  0  0  0  0  0  0
   -2.3528    3.0180   27.8497 N   0  0  0  0  0  0  0  0  0  0  0  0
   -0.8192   -2.3305   30.6796 S   0  0  0  0  0  0  0  0  0  0  0  0
    0.2700   -2.0283   31.5724 O   0  0  0  0  0  0  0  0  0  0  0  0
   -1.7291   -3.4142   30.9626 O   0  0  0  0  0  0  0  0  0  0  0  0
   -0.2480   -2.5304   29.1340 N   0  0  0  0  0  0  0  0  0  0  0  0
    1.1497   -2.9221   28.9519 C   0  0  0  0  0  0  0  0  0  0  0  0
    2.1009   -1.7676   28.6154 C   0  0  0  0  0  0  0  0  0  0  0  0
    1.6970   -0.8284   27.4877 C   0  0  0  0  0  0  0  0  0  0  0  0
    2.0894    0.5749   27.9193 C   0  0  0  0  0  0  0  0  0  0  0  0
    3.0176    0.3510   29.0167 N   0  0  0  0  0  0  0  0  0  0  0  0
    2.5360   -0.8326   29.7339 C   0  0  0  0  0  0  0  0  0  0  0  0
   -2.2807   -1.9487   33.0961 H   0  0  0  0  0  0  0  0  0  0  0  0
   -3.6760   -2.1504   32.0106 H   0  0  0  0  0  0  0  0  0  0  0  0
   -3.6875   -0.9052   33.2603 H   0  0  0  0  0  0  0  0  0  0  0  0
   -3.2883    0.1404   31.1488 H   0  0  0  0  0  0  0  0  0  0  0  0
   -1.8198    0.2873   32.1428 H   0  0  0  0  0  0  0  0  0  0  0  0
   -0.9524    1.1046   30.2766 H   0  0  0  0  0  0  0  0  0  0  0  0
    0.0310   -0.0747   29.5819 H   0  0  0  0  0  0  0  0  0  0  0  0
   -0.5327    0.6844   27.6075 H   0  0  0  0  0  0  0  0  0  0  0  0
   -2.6643   -0.0518   26.5130 H   0  0  0  0  0  0  0  0  0  0  0  0
   -3.0160   -0.8887   28.0491 H   0  0  0  0  0  0  0  0  0  0  0  0
   -1.5944   -1.2951   27.1439 H   0  0  0  0  0  0  0  0  0  0  0  0
   -0.9293   -3.0401   28.5589 H   0  0  0  0  0  0  0  0  0  0  0  0
    1.1686   -3.6336   28.1178 H   0  0  0  0  0  0  0  0  0  0  0  0
    1.5200   -3.4841   29.8167 H   0  0  0  0  0  0  0  0  0  0  0  0
    3.0239   -2.2672   28.2777 H   0  0  0  0  0  0  0  0  0  0  0  0
    0.6557   -0.9203   27.2000 H   0  0  0  0  0  0  0  0  0  0  0  0
    2.3158   -1.0740   26.6222 H   0  0  0  0  0  0  0  0  0  0  0  0
    2.5687    1.1263   27.1043 H   0  0  0  0  0  0  0  0  0  0  0  0
    1.2627    1.1843   28.2779 H   0  0  0  0  0  0  0  0  0  0  0  0
    3.0743    1.1601   29.6329 H   0  0  0  0  0  0  0  0  0  0  0  0
    3.3434   -1.2739   30.3272 H   0  0  0  0  0  0  0  0  0  0  0  0
    1.7487   -0.5454   30.4255 H   0  0  0  0  0  0  0  0  0  0  0  0
  1  2  1  0
  2  3  1  0
  3  4  1  0
  4  5  1  0
  5  6  1  0
  5  7  1  0
  7  8  3  0
  3  9  1  0
  9 10  2  0
  9 11  2  0
  9 12  1  0
 12 13  1  0
 13 14  1  0
 14 15  1  0
 15 16  1  0
 16 17  1  0
 17 18  1  0
 18 14  1  0
  1 19  1  0
  1 20  1  0
  1 21  1  0
  2 22  1  0
  2 23  1  0
  4 24  1  0
  4 25  1  0
  5 26  1  0
  6 27  1  0
  6 28  1  0
  6 29  1  0
 12 30  1  0
 13 31  1  0
 13 32  1  0
 14 33  1  0
 15 34  1  0
 15 35  1  0
 16 36  1  0
 16 37  1  0
 17 38  1  0
 18 39  1  0
 18 40  1  0
M  END
>  <Energy>  (119) 
-144.58199506349126

>  <compound_id>  (119) 
52718

>  <target_id>  (119) 
1

>  <reference_id>  (119) 
53

>  <inspiration_ids>  (119) 
[53, 13]

>  <energy_score>  (119) 
-41.60554044005195

>  <distance_score>  (119) 
2.1360650081081882

>  <path>  (119) 
/opt/xchem-fragalysis-2/maxwin/BulkDock/SCRATCH/511025/C52718-P53/C52718-P53.minimised.mol

>  <scratch_subdir>  (119) 
/opt/xchem-fragalysis-2/maxwin/BulkDock/SCRATCH/511025/C52718-P53

>  <fragmenstein_runtime>  (119) 
22.09747552871704

>  <fragmenstein_outcome>  (119) 
too moved

>  <fragmenstein_mode>  (119) 
expansion

>  <fragmenstein_error>  (119) 


$$$$
C52718-P13
     RDKit          3D

 40 40  0  0  0  0  0  0  0  0999 V2000
   -2.0081   -1.2354   27.6687 C   0  0  0  0  0  0  0  0  0  0  0  0
   -2.1162   -0.9477   29.1439 C   0  0  0  0  0  0  0  0  0  0  0  0
   -0.8141   -0.7272   29.7746 N   0  0  0  0  0  0  0  0  0  0  0  0
   -0.4211    0.7164   29.8727 C   0  0  0  0  0  0  0  0  0  0  0  0
   -0.5363    1.6838   28.6211 C   0  0  0  0  0  0  0  0  0  0  0  0
    0.3112    1.3689   27.4088 C   0  0  0  0  0  0  0  0  0  0  0  0
   -1.8524    2.0113   28.0612 C   0  0  0  0  0  0  0  0  0  0  0  0
   -2.7888    2.2977   27.4419 N   0  0  0  0  0  0  0  0  0  0  0  0
   -0.6104   -1.7900   31.1071 S   0  0  0  0  0  0  0  0  0  0  0  0
    0.4426   -1.3679   31.9896 O   0  0  0  0  0  0  0  0  0  0  0  0
   -1.8965   -2.2091   31.6181 O   0  0  0  0  0  0  0  0  0  0  0  0
   -0.0383   -3.0547   30.1907 N   0  0  0  0  0  0  0  0  0  0  0  0
    1.3942   -3.3005   30.1259 C   0  0  0  0  0  0  0  0  0  0  0  0
    2.2582   -2.3552   29.3130 C   0  0  0  0  0  0  0  0  0  0  0  0
    1.7600   -2.0059   27.9404 C   0  0  0  0  0  0  0  0  0  0  0  0
    2.6628   -0.8530   27.5640 C   0  0  0  0  0  0  0  0  0  0  0  0
    2.7361   -0.0688   28.7921 N   0  0  0  0  0  0  0  0  0  0  0  0
    2.7404   -1.0321   29.8986 C   0  0  0  0  0  0  0  0  0  0  0  0
   -1.7404   -0.3776   27.0606 H   0  0  0  0  0  0  0  0  0  0  0  0
   -2.9572   -1.6040   27.2852 H   0  0  0  0  0  0  0  0  0  0  0  0
   -1.2796   -2.0260   27.5035 H   0  0  0  0  0  0  0  0  0  0  0  0
   -2.7759   -0.1260   29.3996 H   0  0  0  0  0  0  0  0  0  0  0  0
   -2.5515   -1.8620   29.5361 H   0  0  0  0  0  0  0  0  0  0  0  0
   -0.9751    1.1165   30.7209 H   0  0  0  0  0  0  0  0  0  0  0  0
    0.6238    0.7544   30.1850 H   0  0  0  0  0  0  0  0  0  0  0  0
   -0.1519    2.6425   29.0029 H   0  0  0  0  0  0  0  0  0  0  0  0
    0.2269    0.3284   27.1096 H   0  0  0  0  0  0  0  0  0  0  0  0
    1.3545    1.6115   27.6166 H   0  0  0  0  0  0  0  0  0  0  0  0
    0.0474    1.9851   26.5396 H   0  0  0  0  0  0  0  0  0  0  0  0
   -0.6045   -3.2646   29.3712 H   0  0  0  0  0  0  0  0  0  0  0  0
    1.4953   -4.3028   29.6870 H   0  0  0  0  0  0  0  0  0  0  0  0
    1.7990   -3.3983   31.1404 H   0  0  0  0  0  0  0  0  0  0  0  0
    3.1886   -2.9279   29.1543 H   0  0  0  0  0  0  0  0  0  0  0  0
    0.7186   -1.7089   27.9353 H   0  0  0  0  0  0  0  0  0  0  0  0
    1.9074   -2.8729   27.3006 H   0  0  0  0  0  0  0  0  0  0  0  0
    3.6629   -1.2255   27.3064 H   0  0  0  0  0  0  0  0  0  0  0  0
    2.3154   -0.2695   26.7137 H   0  0  0  0  0  0  0  0  0  0  0  0
    3.5804    0.5019   28.8062 H   0  0  0  0  0  0  0  0  0  0  0  0
    3.7640   -1.1525   30.2753 H   0  0  0  0  0  0  0  0  0  0  0  0
    2.1593   -0.6461   30.7264 H   0  0  0  0  0  0  0  0  0  0  0  0
  1  2  1  0
  2  3  1  0
  3  4  1  0
  4  5  1  0
  5  6  1  0
  5  7  1  0
  7  8  3  0
  3  9  1  0
  9 10  2  0
  9 11  2  0
  9 12  1  0
 12 13  1  0
 13 14  1  0
 14 15  1  0
 15 16  1  0
 16 17  1  0
 17 18  1  0
 18 14  1  0
  1 19  1  0
  1 20  1  0
  1 21  1  0
  2 22  1  0
  2 23  1  0
  4 24  1  0
  4 25  1  0
  5 26  1  0
  6 27  1  0
  6 28  1  0
  6 29  1  0
 12 30  1  0
 13 31  1  0
 13 32  1  0
 14 33  1  0
 15 34  1  0
 15 35  1  0
 16 36  1  0
 16 37  1  0
 17 38  1  0
 18 39  1  0
 18 40  1  0
M  END
>  <Energy>  (120) 
-134.40782089486342

>  <compound_id>  (120) 
52718

>  <target_id>  (120) 
1

>  <reference_id>  (120) 
13

>  <inspiration_ids>  (120) 
[53, 13]

>  <energy_score>  (120) 
-31.43136627142333

>  <distance_score>  (120) 
2.570837741575573

>  <path>  (120) 
/opt/xchem-fragalysis-2/maxwin/BulkDock/SCRATCH/511025/C52718-P13/C52718-P13.minimised.mol

>  <scratch_subdir>  (120) 
/opt/xchem-fragalysis-2/maxwin/BulkDock/SCRATCH/511025/C52718-P13

>  <fragmenstein_runtime>  (120) 
18.334917068481445

>  <fragmenstein_outcome>  (120) 
too moved

>  <fragmenstein_mode>  (120) 
expansion

>  <fragmenstein_error>  (120) 


$$$$
C52721-P53
     RDKit          3D

 35 35  0  0  0  0  0  0  0  0999 V2000
   -2.3904   -0.9039   32.1315 C   0  0  0  0  0  0  0  0  0  0  0  0
   -1.3797   -2.0436   32.0140 C   0  0  0  0  0  0  0  0  0  0  0  0
   -0.7562   -2.3057   33.3889 C   0  0  0  0  0  0  0  0  0  0  0  0
   -0.2728   -1.7613   31.0018 C   0  0  0  0  0  0  0  0  0  0  0  0
   -0.6774   -1.9403   29.5423 C   0  0  0  0  0  0  0  0  0  0  0  0
   -0.6076   -3.0656   29.0420 O   0  0  0  0  0  0  0  0  0  0  0  0
   -1.0785   -0.6689   28.7337 C   0  0  0  0  0  0  0  0  0  0  0  0
   -2.2137   -0.9765   27.7634 C   0  0  0  0  0  0  0  0  0  0  0  0
   -1.6017    0.3149   29.6265 O   0  0  0  0  0  0  0  0  0  0  0  0
    0.1293   -0.1304   27.9232 C   0  0  0  0  0  0  0  0  0  0  0  0
   -0.2332    1.1078   27.0984 C   0  0  0  0  0  0  0  0  0  0  0  0
   -0.0857    2.2776   28.0525 C   0  0  0  0  0  0  0  0  0  0  0  0
    0.6888    1.7480   29.1959 N   0  0  0  0  0  0  0  0  0  0  0  0
    1.2536    0.4662   28.7570 C   0  0  0  0  0  0  0  0  0  0  0  0
   -3.0987   -1.0965   32.9451 H   0  0  0  0  0  0  0  0  0  0  0  0
   -1.8972    0.0510   32.3391 H   0  0  0  0  0  0  0  0  0  0  0  0
   -2.9827   -0.8091   31.2208 H   0  0  0  0  0  0  0  0  0  0  0  0
   -1.9226   -2.9467   31.7107 H   0  0  0  0  0  0  0  0  0  0  0  0
   -0.1696   -1.4449   33.7284 H   0  0  0  0  0  0  0  0  0  0  0  0
   -0.0935   -3.1770   33.3563 H   0  0  0  0  0  0  0  0  0  0  0  0
   -1.5272   -2.5035   34.1400 H   0  0  0  0  0  0  0  0  0  0  0  0
    0.5666   -2.4520   31.1605 H   0  0  0  0  0  0  0  0  0  0  0  0
    0.1440   -0.7625   31.1604 H   0  0  0  0  0  0  0  0  0  0  0  0
   -2.7366   -0.0715   27.4459 H   0  0  0  0  0  0  0  0  0  0  0  0
   -1.8647   -1.5108   26.8815 H   0  0  0  0  0  0  0  0  0  0  0  0
   -2.9478   -1.6213   28.2412 H   0  0  0  0  0  0  0  0  0  0  0  0
   -0.8599    0.9160   29.8534 H   0  0  0  0  0  0  0  0  0  0  0  0
    0.5244   -0.9270   27.2861 H   0  0  0  0  0  0  0  0  0  0  0  0
   -1.2018    1.0904   26.5975 H   0  0  0  0  0  0  0  0  0  0  0  0
    0.5211    1.2451   26.3211 H   0  0  0  0  0  0  0  0  0  0  0  0
   -1.0555    2.6491   28.3978 H   0  0  0  0  0  0  0  0  0  0  0  0
    0.4431    3.1086   27.5732 H   0  0  0  0  0  0  0  0  0  0  0  0
    1.4363    2.4047   29.4289 H   0  0  0  0  0  0  0  0  0  0  0  0
    1.5606   -0.1530   29.6008 H   0  0  0  0  0  0  0  0  0  0  0  0
    2.1433    0.6433   28.1389 H   0  0  0  0  0  0  0  0  0  0  0  0
  1  2  1  0
  2  3  1  0
  2  4  1  0
  4  5  1  0
  5  6  2  0
  5  7  1  0
  7  8  1  0
  7  9  1  0
  7 10  1  0
 10 11  1  0
 11 12  1  0
 12 13  1  0
 13 14  1  0
 14 10  1  0
  1 15  1  0
  1 16  1  0
  1 17  1  0
  2 18  1  0
  3 19  1  0
  3 20  1  0
  3 21  1  0
  4 22  1  0
  4 23  1  0
  8 24  1  0
  8 25  1  0
  8 26  1  0
  9 27  1  0
 10 28  1  0
 11 29  1  0
 11 30  1  0
 12 31  1  0
 12 32  1  0
 13 33  1  0
 14 34  1  0
 14 35  1  0
M  END
>  <Energy>  (121) 
45.003767624878492

>  <compound_id>  (121) 
52721

>  <target_id>  (121) 
1

>  <reference_id>  (121) 
53

>  <inspiration_ids>  (121) 
[53, 13]

>  <energy_score>  (121) 
-34.63093554893118

>  <distance_score>  (121) 
2.1170733232781203

>  <path>  (121) 
/opt/xchem-fragalysis-2/maxwin/BulkDock/SCRATCH/511025/C52721-P53/C52721-P53.minimised.mol

>  <scratch_subdir>  (121) 
/opt/xchem-fragalysis-2/maxwin/BulkDock/SCRATCH/511025/C52721-P53

>  <fragmenstein_runtime>  (121) 
19.62283444404602

>  <fragmenstein_outcome>  (121) 
too moved

>  <fragmenstein_mode>  (121) 
expansion

>  <fragmenstein_error>  (121) 


$$$$
C52721-P13
     RDKit          3D

 35 35  0  0  0  0  0  0  0  0999 V2000
   -2.4668   -1.3263   32.5620 C   0  0  0  0  0  0  0  0  0  0  0  0
   -0.9439   -1.3887   32.4908 C   0  0  0  0  0  0  0  0  0  0  0  0
   -0.3112   -0.0360   32.8204 C   0  0  0  0  0  0  0  0  0  0  0  0
   -0.3705   -2.0274   31.2194 C   0  0  0  0  0  0  0  0  0  0  0  0
   -1.2308   -2.0201   29.9619 C   0  0  0  0  0  0  0  0  0  0  0  0
   -1.8397   -3.0593   29.7003 O   0  0  0  0  0  0  0  0  0  0  0  0
   -1.3736   -0.7119   29.1198 C   0  0  0  0  0  0  0  0  0  0  0  0
   -2.0557   -0.9454   27.7741 C   0  0  0  0  0  0  0  0  0  0  0  0
   -2.2583    0.1556   29.8242 O   0  0  0  0  0  0  0  0  0  0  0  0
   -0.0337    0.0075   28.9540 C   0  0  0  0  0  0  0  0  0  0  0  0
    1.0670   -0.7889   28.2799 C   0  0  0  0  0  0  0  0  0  0  0  0
    1.9773    0.2790   27.6930 C   0  0  0  0  0  0  0  0  0  0  0  0
    1.3411    1.5652   27.9588 N   0  0  0  0  0  0  0  0  0  0  0  0
   -0.0790    1.2778   28.1151 C   0  0  0  0  0  0  0  0  0  0  0  0
   -2.7812   -1.1308   33.5941 H   0  0  0  0  0  0  0  0  0  0  0  0
   -2.9154   -2.2805   32.2670 H   0  0  0  0  0  0  0  0  0  0  0  0
   -2.9019   -0.5349   31.9557 H   0  0  0  0  0  0  0  0  0  0  0  0
   -0.6329   -2.0504   33.3129 H   0  0  0  0  0  0  0  0  0  0  0  0
   -0.5473    0.7317   32.0834 H   0  0  0  0  0  0  0  0  0  0  0  0
    0.7793   -0.1226   32.8751 H   0  0  0  0  0  0  0  0  0  0  0  0
   -0.6608    0.3238   33.7945 H   0  0  0  0  0  0  0  0  0  0  0  0
   -0.1970   -3.0917   31.4399 H   0  0  0  0  0  0  0  0  0  0  0  0
    0.6285   -1.6444   30.9984 H   0  0  0  0  0  0  0  0  0  0  0  0
   -2.3645   -0.0166   27.2861 H   0  0  0  0  0  0  0  0  0  0  0  0
   -1.4098   -1.5080   27.1144 H   0  0  0  0  0  0  0  0  0  0  0  0
   -2.9554   -1.5465   27.8902 H   0  0  0  0  0  0  0  0  0  0  0  0
   -1.7533    0.5865   30.5256 H   0  0  0  0  0  0  0  0  0  0  0  0
    0.3302    0.3088   29.9467 H   0  0  0  0  0  0  0  0  0  0  0  0
    0.6876   -1.4395   27.4947 H   0  0  0  0  0  0  0  0  0  0  0  0
    1.6108   -1.4199   28.9893 H   0  0  0  0  0  0  0  0  0  0  0  0
    2.1359    0.1190   26.6260 H   0  0  0  0  0  0  0  0  0  0  0  0
    2.9630    0.2550   28.1693 H   0  0  0  0  0  0  0  0  0  0  0  0
    1.4996    2.2208   27.1949 H   0  0  0  0  0  0  0  0  0  0  0  0
   -0.5921    2.0978   28.6244 H   0  0  0  0  0  0  0  0  0  0  0  0
   -0.5319    1.1349   27.1292 H   0  0  0  0  0  0  0  0  0  0  0  0
  1  2  1  0
  2  3  1  0
  2  4  1  0
  4  5  1  0
  5  6  2  0
  5  7  1  0
  7  8  1  0
  7  9  1  0
  7 10  1  0
 10 11  1  0
 11 12  1  0
 12 13  1  0
 13 14  1  0
 14 10  1  0
  1 15  1  0
  1 16  1  0
  1 17  1  0
  2 18  1  0
  3 19  1  0
  3 20  1  0
  3 21  1  0
  4 22  1  0
  4 23  1  0
  8 24  1  0
  8 25  1  0
  8 26  1  0
  9 27  1  0
 10 28  1  0
 11 29  1  0
 11 30  1  0
 12 31  1  0
 12 32  1  0
 13 33  1  0
 14 34  1  0
 14 35  1  0
M  END
>  <Energy>  (122) 
53.879729878584811

>  <compound_id>  (122) 
52721

>  <target_id>  (122) 
1

>  <reference_id>  (122) 
13

>  <inspiration_ids>  (122) 
[53, 13]

>  <energy_score>  (122) 
-25.754973295225057

>  <distance_score>  (122) 
2.507526678996645

>  <path>  (122) 
/opt/xchem-fragalysis-2/maxwin/BulkDock/SCRATCH/511025/C52721-P13/C52721-P13.minimised.mol

>  <scratch_subdir>  (122) 
/opt/xchem-fragalysis-2/maxwin/BulkDock/SCRATCH/511025/C52721-P13

>  <fragmenstein_runtime>  (122) 
24.74346613883972

>  <fragmenstein_outcome>  (122) 
too moved

>  <fragmenstein_mode>  (122) 
expansion

>  <fragmenstein_error>  (122) 


$$$$
C52722-P53
     RDKit          3D

 34 34  0  0  0  0  0  0  0  0999 V2000
    0.4112   -3.2353   31.1245 O   0  0  0  0  0  0  0  0  0  0  0  0
   -0.5642   -2.1683   31.0645 S   0  0  0  0  0  0  0  0  0  0  0  0
   -1.7991   -2.2835   31.8136 O   0  0  0  0  0  0  0  0  0  0  0  0
    0.2856   -0.6237   31.4992 C   0  0  0  0  0  0  0  0  0  0  0  0
   -0.3301    0.7278   31.0862 C   0  0  0  0  0  0  0  0  0  0  0  0
    0.6105    1.5763   30.1644 C   0  0  0  0  0  0  0  0  0  0  0  0
    0.0565    2.8805   29.5725 C   0  0  0  0  0  0  0  0  0  0  0  0
    1.1941    3.5513   28.3720 Cl  0  0  0  0  0  0  0  0  0  0  0  0
   -1.0394   -2.0378   29.4948 N   0  0  0  0  0  0  0  0  0  0  0  0
   -0.1756   -1.5659   28.4036 C   0  0  0  0  0  0  0  0  0  0  0  0
   -0.8335   -0.2767   27.8761 C   0  0  0  0  0  0  0  0  0  0  0  0
   -2.1794   -0.4778   27.2258 C   0  0  0  0  0  0  0  0  0  0  0  0
   -2.5024    0.9256   26.7484 C   0  0  0  0  0  0  0  0  0  0  0  0
   -1.1523    1.5678   26.4843 C   0  0  0  0  0  0  0  0  0  0  0  0
   -0.1432    0.5914   26.9265 N   0  0  0  0  0  0  0  0  0  0  0  0
    0.3691   -0.6592   32.5923 H   0  0  0  0  0  0  0  0  0  0  0  0
    1.3015   -0.7231   31.1007 H   0  0  0  0  0  0  0  0  0  0  0  0
   -1.3193    0.5734   30.6545 H   0  0  0  0  0  0  0  0  0  0  0  0
   -0.4893    1.3157   31.9989 H   0  0  0  0  0  0  0  0  0  0  0  0
    1.4893    1.8399   30.7708 H   0  0  0  0  0  0  0  0  0  0  0  0
    1.0140    0.9363   29.3782 H   0  0  0  0  0  0  0  0  0  0  0  0
   -0.0553    3.6258   30.3636 H   0  0  0  0  0  0  0  0  0  0  0  0
   -0.9071    2.7319   29.0899 H   0  0  0  0  0  0  0  0  0  0  0  0
   -1.7919   -2.6659   29.1968 H   0  0  0  0  0  0  0  0  0  0  0  0
    0.8360   -1.3612   28.7645 H   0  0  0  0  0  0  0  0  0  0  0  0
   -0.1086   -2.3391   27.6399 H   0  0  0  0  0  0  0  0  0  0  0  0
   -1.0493    0.3425   28.7385 H   0  0  0  0  0  0  0  0  0  0  0  0
   -2.1547   -1.1735   26.3886 H   0  0  0  0  0  0  0  0  0  0  0  0
   -2.9104   -0.8503   27.9422 H   0  0  0  0  0  0  0  0  0  0  0  0
   -3.0172    1.4849   27.5376 H   0  0  0  0  0  0  0  0  0  0  0  0
   -3.1495    0.9242   25.8728 H   0  0  0  0  0  0  0  0  0  0  0  0
   -1.0839    2.5109   27.0260 H   0  0  0  0  0  0  0  0  0  0  0  0
   -1.0307    1.8311   25.4330 H   0  0  0  0  0  0  0  0  0  0  0  0
    0.6673    1.0654   27.3175 H   0  0  0  0  0  0  0  0  0  0  0  0
  1  2  2  0
  2  3  2  0
  2  4  1  0
  4  5  1  0
  5  6  1  0
  6  7  1  0
  7  8  1  0
  2  9  1  0
  9 10  1  0
 10 11  1  0
 11 12  1  0
 12 13  1  0
 13 14  1  0
 14 15  1  0
 15 11  1  0
  4 16  1  0
  4 17  1  0
  5 18  1  0
  5 19  1  0
  6 20  1  0
  6 21  1  0
  7 22  1  0
  7 23  1  0
  9 24  1  0
 10 25  1  0
 10 26  1  0
 11 27  1  0
 12 28  1  0
 12 29  1  0
 13 30  1  0
 13 31  1  0
 14 32  1  0
 14 33  1  0
 15 34  1  0
M  END
>  <Energy>  (123) 
-23.832146205192029

>  <compound_id>  (123) 
52722

>  <target_id>  (123) 
1

>  <reference_id>  (123) 
53

>  <inspiration_ids>  (123) 
[53, 13]

>  <energy_score>  (123) 
-11.573040804038243

>  <distance_score>  (123) 
2.0654171367298377

>  <path>  (123) 
/opt/xchem-fragalysis-2/maxwin/BulkDock/SCRATCH/511025/C52722-P53/C52722-P53.minimised.mol

>  <scratch_subdir>  (123) 
/opt/xchem-fragalysis-2/maxwin/BulkDock/SCRATCH/511025/C52722-P53

>  <fragmenstein_runtime>  (123) 
4.469543933868408

>  <fragmenstein_outcome>  (123) 
too moved

>  <fragmenstein_mode>  (123) 
expansion

>  <fragmenstein_error>  (123) 


$$$$
C52722-P13
     RDKit          3D

 34 34  0  0  0  0  0  0  0  0999 V2000
    0.4656   -3.1933   31.1598 O   0  0  0  0  0  0  0  0  0  0  0  0
   -0.4831   -2.1004   31.1480 S   0  0  0  0  0  0  0  0  0  0  0  0
   -1.6983   -2.1976   31.9292 O   0  0  0  0  0  0  0  0  0  0  0  0
    0.4200   -0.5874   31.5872 C   0  0  0  0  0  0  0  0  0  0  0  0
   -0.1418    0.7926   31.1870 C   0  0  0  0  0  0  0  0  0  0  0  0
    0.8127    1.5993   30.2418 C   0  0  0  0  0  0  0  0  0  0  0  0
    0.3165    2.9352   29.6684 C   0  0  0  0  0  0  0  0  0  0  0  0
    1.4489    3.5564   28.4375 Cl  0  0  0  0  0  0  0  0  0  0  0  0
   -0.9960   -1.9294   29.5938 N   0  0  0  0  0  0  0  0  0  0  0  0
   -0.1400   -1.4583   28.4973 C   0  0  0  0  0  0  0  0  0  0  0  0
   -0.7850   -0.1520   27.9927 C   0  0  0  0  0  0  0  0  0  0  0  0
   -2.1176   -0.3500   27.3202 C   0  0  0  0  0  0  0  0  0  0  0  0
   -2.4204    1.0226   26.7458 C   0  0  0  0  0  0  0  0  0  0  0  0
   -1.0767    1.7180   26.6394 C   0  0  0  0  0  0  0  0  0  0  0  0
   -0.0821    0.7233   27.0631 N   0  0  0  0  0  0  0  0  0  0  0  0
    0.5051   -0.6331   32.6800 H   0  0  0  0  0  0  0  0  0  0  0  0
    1.4311   -0.7201   31.1860 H   0  0  0  0  0  0  0  0  0  0  0  0
   -1.1482    0.6834   30.7855 H   0  0  0  0  0  0  0  0  0  0  0  0
   -0.2470    1.3876   32.1029 H   0  0  0  0  0  0  0  0  0  0  0  0
    1.7186    1.8163   30.8266 H   0  0  0  0  0  0  0  0  0  0  0  0
    1.1665    0.9430   29.4464 H   0  0  0  0  0  0  0  0  0  0  0  0
    0.2422    3.6847   30.4611 H   0  0  0  0  0  0  0  0  0  0  0  0
   -0.6495    2.8356   29.1916 H   0  0  0  0  0  0  0  0  0  0  0  0
   -1.7458   -2.5656   29.3057 H   0  0  0  0  0  0  0  0  0  0  0  0
    0.8798   -1.2752   28.8458 H   0  0  0  0  0  0  0  0  0  0  0  0
   -0.0941   -2.2247   27.7256 H   0  0  0  0  0  0  0  0  0  0  0  0
   -1.0137    0.4567   28.8611 H   0  0  0  0  0  0  0  0  0  0  0  0
   -2.1062   -1.0983   26.5354 H   0  0  0  0  0  0  0  0  0  0  0  0
   -2.8540   -0.6856   28.0435 H   0  0  0  0  0  0  0  0  0  0  0  0
   -3.0711    1.5917   27.4164 H   0  0  0  0  0  0  0  0  0  0  0  0
   -2.9230    0.9530   25.7817 H   0  0  0  0  0  0  0  0  0  0  0  0
   -1.0813    2.6016   27.2756 H   0  0  0  0  0  0  0  0  0  0  0  0
   -0.8816    2.0957   25.6340 H   0  0  0  0  0  0  0  0  0  0  0  0
    0.7382    1.1778   27.4550 H   0  0  0  0  0  0  0  0  0  0  0  0
  1  2  2  0
  2  3  2  0
  2  4  1  0
  4  5  1  0
  5  6  1  0
  6  7  1  0
  7  8  1  0
  2  9  1  0
  9 10  1  0
 10 11  1  0
 11 12  1  0
 12 13  1  0
 13 14  1  0
 14 15  1  0
 15 11  1  0
  4 16  1  0
  4 17  1  0
  5 18  1  0
  5 19  1  0
  6 20  1  0
  6 21  1  0
  7 22  1  0
  7 23  1  0
  9 24  1  0
 10 25  1  0
 10 26  1  0
 11 27  1  0
 12 28  1  0
 12 29  1  0
 13 30  1  0
 13 31  1  0
 14 32  1  0
 14 33  1  0
 15 34  1  0
M  END
>  <Energy>  (124) 
-23.142092300358314

>  <compound_id>  (124) 
52722

>  <target_id>  (124) 
1

>  <reference_id>  (124) 
13

>  <inspiration_ids>  (124) 
[53, 13]

>  <energy_score>  (124) 
-10.882986899204312

>  <distance_score>  (124) 
2.1347228166908123

>  <path>  (124) 
/opt/xchem-fragalysis-2/maxwin/BulkDock/SCRATCH/511025/C52722-P13/C52722-P13.minimised.mol

>  <scratch_subdir>  (124) 
/opt/xchem-fragalysis-2/maxwin/BulkDock/SCRATCH/511025/C52722-P13

>  <fragmenstein_runtime>  (124) 
3.9330034255981445

>  <fragmenstein_outcome>  (124) 
too moved

>  <fragmenstein_mode>  (124) 
expansion

>  <fragmenstein_error>  (124) 


$$$$
C52724-P53
     RDKit          3D

 34 34  0  0  0  0  0  0  0  0999 V2000
   -2.2499    0.1653   26.2550 C   0  0  0  0  0  0  0  0  0  0  0  0
   -0.9532   -0.2604   26.9215 C   0  0  0  0  0  0  0  0  0  0  0  0
   -1.0344   -1.5837   27.6442 C   0  0  0  0  0  0  0  0  0  0  0  0
    0.2643   -2.1261   28.2319 C   0  0  0  0  0  0  0  0  0  0  0  0
    1.7522   -0.8781   28.4256 Br  0  0  0  0  0  0  0  0  0  0  0  0
    0.0625   -2.9483   29.4918 C   0  0  0  0  0  0  0  0  0  0  0  0
   -1.0941   -2.5244   30.3091 N   0  0  0  0  0  0  0  0  0  0  0  0
   -0.9419   -1.1487   31.2364 S   0  0  0  0  0  0  0  0  0  0  0  0
    0.3167   -1.3151   31.9232 O   0  0  0  0  0  0  0  0  0  0  0  0
   -2.1871   -1.0767   31.9646 O   0  0  0  0  0  0  0  0  0  0  0  0
   -0.8493    0.1170   30.1146 N   0  0  0  0  0  0  0  0  0  0  0  0
   -2.0788    0.6703   29.4733 C   0  0  0  0  0  0  0  0  0  0  0  0
   -1.6605    2.0153   28.7865 C   0  0  0  0  0  0  0  0  0  0  0  0
   -0.2704    2.3188   29.3363 C   0  0  0  0  0  0  0  0  0  0  0  0
   -0.0195    1.2961   30.4508 C   0  0  0  0  0  0  0  0  0  0  0  0
   -3.0132    0.5224   26.9414 H   0  0  0  0  0  0  0  0  0  0  0  0
   -2.0598    0.9947   25.5696 H   0  0  0  0  0  0  0  0  0  0  0  0
   -2.6875   -0.6781   25.7214 H   0  0  0  0  0  0  0  0  0  0  0  0
   -0.1594   -0.2768   26.2086 H   0  0  0  0  0  0  0  0  0  0  0  0
   -0.5383    0.4896   27.5637 H   0  0  0  0  0  0  0  0  0  0  0  0
   -1.8388   -1.5982   28.3697 H   0  0  0  0  0  0  0  0  0  0  0  0
   -1.4371   -2.3286   26.9777 H   0  0  0  0  0  0  0  0  0  0  0  0
    0.7177   -2.8129   27.5197 H   0  0  0  0  0  0  0  0  0  0  0  0
    0.9630   -3.0374   30.1089 H   0  0  0  0  0  0  0  0  0  0  0  0
   -0.1727   -3.9767   29.1860 H   0  0  0  0  0  0  0  0  0  0  0  0
   -1.3674   -3.2624   30.9538 H   0  0  0  0  0  0  0  0  0  0  0  0
   -2.5658   -0.0006   28.7942 H   0  0  0  0  0  0  0  0  0  0  0  0
   -2.8310    0.7621   30.2460 H   0  0  0  0  0  0  0  0  0  0  0  0
   -2.3788    2.8263   28.9169 H   0  0  0  0  0  0  0  0  0  0  0  0
   -1.6194    2.0147   27.7003 H   0  0  0  0  0  0  0  0  0  0  0  0
   -0.1836    3.3433   29.7101 H   0  0  0  0  0  0  0  0  0  0  0  0
    0.4820    2.2063   28.5477 H   0  0  0  0  0  0  0  0  0  0  0  0
    1.0414    1.0484   30.5232 H   0  0  0  0  0  0  0  0  0  0  0  0
   -0.3310    1.7029   31.4191 H   0  0  0  0  0  0  0  0  0  0  0  0
  1  2  1  0
  2  3  1  0
  3  4  1  0
  4  5  1  0
  4  6  1  0
  6  7  1  0
  7  8  1  0
  8  9  2  0
  8 10  2  0
  8 11  1  0
 11 12  1  0
 12 13  1  0
 13 14  1  0
 14 15  1  0
 15 11  1  0
  1 16  1  0
  1 17  1  0
  1 18  1  0
  2 19  1  0
  2 20  1  0
  3 21  1  0
  3 22  1  0
  4 23  1  0
  6 24  1  0
  6 25  1  0
  7 26  1  0
 12 27  1  0
 12 28  1  0
 13 29  1  0
 13 30  1  0
 14 31  1  0
 14 32  1  0
 15 33  1  0
 15 34  1  0
M  END
>  <Energy>  (125) 
-118.62102123676085

>  <compound_id>  (125) 
52724

>  <target_id>  (125) 
1

>  <reference_id>  (125) 
53

>  <inspiration_ids>  (125) 
[53, 13]

>  <energy_score>  (125) 
16.097631561273573

>  <distance_score>  (125) 
2.176738501553933

>  <path>  (125) 
/opt/xchem-fragalysis-2/maxwin/BulkDock/SCRATCH/511025/C52724-P53/C52724-P53.minimised.mol

>  <scratch_subdir>  (125) 
/opt/xchem-fragalysis-2/maxwin/BulkDock/SCRATCH/511025/C52724-P53

>  <fragmenstein_runtime>  (125) 
2.8638641834259033

>  <fragmenstein_outcome>  (125) 
too moved

>  <fragmenstein_mode>  (125) 
expansion

>  <fragmenstein_error>  (125) 


$$$$
C52724-P13
     RDKit          3D

 34 34  0  0  0  0  0  0  0  0999 V2000
   -2.8019    1.6603   26.5496 C   0  0  0  0  0  0  0  0  0  0  0  0
   -1.4698    1.1910   27.0948 C   0  0  0  0  0  0  0  0  0  0  0  0
   -1.5400   -0.1769   27.7750 C   0  0  0  0  0  0  0  0  0  0  0  0
   -0.2196   -0.9460   27.8433 C   0  0  0  0  0  0  0  0  0  0  0  0
    1.4091    0.1147   27.9831 Br  0  0  0  0  0  0  0  0  0  0  0  0
   -0.1639   -2.2494   28.6382 C   0  0  0  0  0  0  0  0  0  0  0  0
   -1.2444   -2.3267   29.6192 N   0  0  0  0  0  0  0  0  0  0  0  0
   -0.9003   -2.4477   31.2318 S   0  0  0  0  0  0  0  0  0  0  0  0
    0.1560   -3.4151   31.4015 O   0  0  0  0  0  0  0  0  0  0  0  0
   -2.1875   -2.6220   31.8617 O   0  0  0  0  0  0  0  0  0  0  0  0
   -0.3131   -0.9264   31.5437 N   0  0  0  0  0  0  0  0  0  0  0  0
   -1.1368    0.2766   31.3840 C   0  0  0  0  0  0  0  0  0  0  0  0
   -0.1860    1.3465   30.8442 C   0  0  0  0  0  0  0  0  0  0  0  0
    1.1722    0.9108   31.3160 C   0  0  0  0  0  0  0  0  0  0  0  0
    1.1018   -0.6040   31.3435 C   0  0  0  0  0  0  0  0  0  0  0  0
   -3.5159    1.8423   27.3501 H   0  0  0  0  0  0  0  0  0  0  0  0
   -2.6761    2.6002   26.0023 H   0  0  0  0  0  0  0  0  0  0  0  0
   -3.2231    0.9277   25.8640 H   0  0  0  0  0  0  0  0  0  0  0  0
   -0.7594    1.1780   26.2722 H   0  0  0  0  0  0  0  0  0  0  0  0
   -1.1047    1.9449   27.8002 H   0  0  0  0  0  0  0  0  0  0  0  0
   -1.9653   -0.0229   28.7635 H   0  0  0  0  0  0  0  0  0  0  0  0
   -2.2614   -0.8121   27.2448 H   0  0  0  0  0  0  0  0  0  0  0  0
   -0.0445   -1.2546   26.8412 H   0  0  0  0  0  0  0  0  0  0  0  0
    0.8185   -2.4420   29.0738 H   0  0  0  0  0  0  0  0  0  0  0  0
   -0.3269   -3.0943   27.9600 H   0  0  0  0  0  0  0  0  0  0  0  0
   -1.9844   -2.9710   29.3280 H   0  0  0  0  0  0  0  0  0  0  0  0
   -2.0168    0.1235   30.7629 H   0  0  0  0  0  0  0  0  0  0  0  0
   -1.4860    0.5539   32.3851 H   0  0  0  0  0  0  0  0  0  0  0  0
   -0.3535    2.3475   31.2411 H   0  0  0  0  0  0  0  0  0  0  0  0
   -0.2439    1.4094   29.7634 H   0  0  0  0  0  0  0  0  0  0  0  0
    1.3358    1.2783   32.3378 H   0  0  0  0  0  0  0  0  0  0  0  0
    1.9961    1.2957   30.7099 H   0  0  0  0  0  0  0  0  0  0  0  0
    1.5196   -1.0523   30.4504 H   0  0  0  0  0  0  0  0  0  0  0  0
    1.6856   -0.9848   32.1890 H   0  0  0  0  0  0  0  0  0  0  0  0
  1  2  1  0
  2  3  1  0
  3  4  1  0
  4  5  1  0
  4  6  1  0
  6  7  1  0
  7  8  1  0
  8  9  2  0
  8 10  2  0
  8 11  1  0
 11 12  1  0
 12 13  1  0
 13 14  1  0
 14 15  1  0
 15 11  1  0
  1 16  1  0
  1 17  1  0
  1 18  1  0
  2 19  1  0
  2 20  1  0
  3 21  1  0
  3 22  1  0
  4 23  1  0
  6 24  1  0
  6 25  1  0
  7 26  1  0
 12 27  1  0
 12 28  1  0
 13 29  1  0
 13 30  1  0
 14 31  1  0
 14 32  1  0
 15 33  1  0
 15 34  1  0
M  END
>  <Energy>  (126) 
-147.10981520291188

>  <compound_id>  (126) 
52724

>  <target_id>  (126) 
1

>  <reference_id>  (126) 
13

>  <inspiration_ids>  (126) 
[53, 13]

>  <energy_score>  (126) 
-12.391162404876269

>  <distance_score>  (126) 
3.065396745748725

>  <path>  (126) 
/opt/xchem-fragalysis-2/maxwin/BulkDock/SCRATCH/511025/C52724-P13/C52724-P13.minimised.mol

>  <scratch_subdir>  (126) 
/opt/xchem-fragalysis-2/maxwin/BulkDock/SCRATCH/511025/C52724-P13

>  <fragmenstein_runtime>  (126) 
3.778841495513916

>  <fragmenstein_outcome>  (126) 
too moved

>  <fragmenstein_mode>  (126) 
expansion

>  <fragmenstein_error>  (126) 


$$$$
C47150-P93
     RDKit          3D

 55 59  0  0  0  0  0  0  0  0999 V2000
    5.8458   -1.9455   21.1587 S   0  0  0  0  0  0  0  0  0  0  0  0
    6.0440   -3.4504   21.3793 C   0  0  0  0  0  0  0  0  0  0  0  0
    5.0562   -4.5943   22.1316 N   0  0  0  0  0  0  0  0  0  0  0  0
    3.5469   -4.4826   22.7563 C   0  0  0  0  0  0  0  0  0  0  0  0
    3.0552   -4.1214   24.3384 C   0  0  0  0  0  0  0  0  0  0  0  0
    1.5498   -4.2067   24.7743 N   0  0  0  0  0  0  0  0  0  0  0  0
    0.4864   -4.1777   23.8898 C   0  0  0  0  0  0  0  0  0  0  0  0
   -0.6705   -4.6092   24.5180 C   0  0  0  0  0  0  0  0  0  0  0  0
   -0.3643   -5.0458   25.8136 C   0  0  0  0  0  0  0  0  0  0  0  0
   -1.1036   -5.7911   26.7769 C   0  0  0  0  0  0  0  0  0  0  0  0
   -0.5378   -6.0870   28.0109 C   0  0  0  0  0  0  0  0  0  0  0  0
    0.7325   -5.5946   28.2938 C   0  0  0  0  0  0  0  0  0  0  0  0
    1.4916   -4.8436   27.3473 C   0  0  0  0  0  0  0  0  0  0  0  0
    0.9578   -4.5950   26.0586 C   0  0  0  0  0  0  0  0  0  0  0  0
    7.3078   -4.5099   20.8601 N   0  0  0  0  0  0  0  0  0  0  0  0
    8.8661   -4.1832   19.9940 C   0  0  0  0  0  0  0  0  0  0  0  0
   10.3638   -5.5304   19.4548 C   0  0  0  0  0  0  0  0  0  0  0  0
   11.6070   -5.5609   20.4184 C   0  0  0  0  0  0  0  0  0  0  0  0
   12.9340   -4.9736   20.3289 C   0  0  0  0  0  0  0  0  0  0  0  0
   13.3722   -4.3405   19.1621 C   0  0  0  0  0  0  0  0  0  0  0  0
   14.5652   -3.6926   18.9226 N   0  0  0  0  0  0  0  0  0  0  0  0
   14.5124   -3.0754   17.7078 C   0  0  0  0  0  0  0  0  0  0  0  0
   13.3258   -3.4217   17.0935 C   0  0  0  0  0  0  0  0  0  0  0  0
   12.6264   -4.2901   17.9859 C   0  0  0  0  0  0  0  0  0  0  0  0
   11.2882   -4.8862   17.9929 C   0  0  0  0  0  0  0  0  0  0  0  0
   12.8645   -2.7598   15.8375 C   0  0  0  0  0  0  0  0  0  0  0  0
   13.9926   -1.9359   15.1791 C   0  0  0  0  0  0  0  0  0  0  0  0
   14.8439   -1.1604   16.1993 C   0  0  0  0  0  0  0  0  0  0  0  0
   15.5216   -2.1112   17.1987 C   0  0  0  0  0  0  0  0  0  0  0  0
    5.5507   -5.4733   22.1627 H   0  0  0  0  0  0  0  0  0  0  0  0
    3.0668   -3.7328   22.1176 H   0  0  0  0  0  0  0  0  0  0  0  0
    3.1079   -5.4575   22.5155 H   0  0  0  0  0  0  0  0  0  0  0  0
    3.3253   -3.0850   24.5664 H   0  0  0  0  0  0  0  0  0  0  0  0
    3.5717   -4.7996   25.0250 H   0  0  0  0  0  0  0  0  0  0  0  0
    0.6351   -3.8559   22.8675 H   0  0  0  0  0  0  0  0  0  0  0  0
   -1.6522   -4.6807   24.0765 H   0  0  0  0  0  0  0  0  0  0  0  0
   -2.0972   -6.1479   26.5246 H   0  0  0  0  0  0  0  0  0  0  0  0
   -1.0870   -6.6627   28.7471 H   0  0  0  0  0  0  0  0  0  0  0  0
    1.1770   -5.8003   29.2667 H   0  0  0  0  0  0  0  0  0  0  0  0
    2.5060   -4.5393   27.5908 H   0  0  0  0  0  0  0  0  0  0  0  0
    7.0597   -5.4628   21.1211 H   0  0  0  0  0  0  0  0  0  0  0  0
    8.5908   -3.2065   19.7693 H   0  0  0  0  0  0  0  0  0  0  0  0
    9.4505   -3.5435   20.6203 H   0  0  0  0  0  0  0  0  0  0  0  0
   11.8324   -6.5390   20.8827 H   0  0  0  0  0  0  0  0  0  0  0  0
   13.6212   -5.1279   21.1580 H   0  0  0  0  0  0  0  0  0  0  0  0
   15.2911   -3.5687   19.6144 H   0  0  0  0  0  0  0  0  0  0  0  0
   10.8414   -4.7150   17.0271 H   0  0  0  0  0  0  0  0  0  0  0  0
   12.0428   -2.0786   16.0930 H   0  0  0  0  0  0  0  0  0  0  0  0
   12.4589   -3.4890   15.1331 H   0  0  0  0  0  0  0  0  0  0  0  0
   13.5562   -1.2427   14.4510 H   0  0  0  0  0  0  0  0  0  0  0  0
   14.6624   -2.5994   14.6220 H   0  0  0  0  0  0  0  0  0  0  0  0
   14.2010   -0.4518   16.7376 H   0  0  0  0  0  0  0  0  0  0  0  0
   15.6075   -0.5719   15.6786 H   0  0  0  0  0  0  0  0  0  0  0  0
   15.9653   -1.5334   18.0167 H   0  0  0  0  0  0  0  0  0  0  0  0
   16.3283   -2.6617   16.7008 H   0  0  0  0  0  0  0  0  0  0  0  0
  1  2  2  0
  2  3  1  0
  3  4  1  0
  4  5  1  0
  5  6  1  0
  6  7  1  0
  7  8  2  0
  8  9  1  0
  9 10  2  0
 10 11  1  0
 11 12  2  0
 12 13  1  0
 13 14  2  0
  2 15  1  0
 15 16  1  0
 16 17  1  0
 17 18  2  0
 18 19  1  0
 19 20  2  0
 20 21  1  0
 21 22  1  0
 22 23  2  0
 23 24  1  0
 24 25  2  0
 23 26  1  0
 26 27  1  0
 27 28  1  0
 28 29  1  0
 14  6  1  0
 25 17  1  0
 14  9  1  0
 24 20  1  0
 29 22  1  0
  3 30  1  0
  4 31  1  0
  4 32  1  0
  5 33  1  0
  5 34  1  0
  7 35  1  0
  8 36  1  0
 10 37  1  0
 11 38  1  0
 12 39  1  0
 13 40  1  0
 15 41  1  0
 16 42  1  0
 16 43  1  0
 18 44  1  0
 19 45  1  0
 21 46  1  0
 25 47  1  0
 26 48  1  0
 26 49  1  0
 27 50  1  0
 27 51  1  0
 28 52  1  0
 28 53  1  0
 29 54  1  0
 29 55  1  0
M  END
>  <Energy>  (127) 
380.75991529821465

>  <compound_id>  (127) 
47150

>  <target_id>  (127) 
1

>  <reference_id>  (127) 
93

>  <inspiration_ids>  (127) 
[93, 39]

>  <energy_score>  (127) 
361.69320632460995

>  <distance_score>  (127) 
15.70670253673402

>  <path>  (127) 
/opt/xchem-fragalysis-2/maxwin/BulkDock/SCRATCH/511025/C47150-P93/C47150-P93.minimised.mol

>  <scratch_subdir>  (127) 
/opt/xchem-fragalysis-2/maxwin/BulkDock/SCRATCH/511025/C47150-P93

>  <fragmenstein_runtime>  (127) 
31.376078605651855

>  <fragmenstein_outcome>  (127) 
too moved

>  <fragmenstein_mode>  (127) 
expansion

>  <fragmenstein_error>  (127) 


$$$$
C47150-P39
     RDKit          3D

 55 59  0  0  0  0  0  0  0  0999 V2000
    3.3188  -20.0425   18.6666 S   0  0  0  0  0  0  0  0  0  0  0  0
    2.6118  -18.9936   19.5104 C   0  0  0  0  0  0  0  0  0  0  0  0
    1.4185  -19.1372   20.6326 N   0  0  0  0  0  0  0  0  0  0  0  0
    0.6032  -20.3345   21.0861 C   0  0  0  0  0  0  0  0  0  0  0  0
   -0.5035  -20.1484   22.1780 C   0  0  0  0  0  0  0  0  0  0  0  0
   -1.5269  -21.1958   22.4609 N   0  0  0  0  0  0  0  0  0  0  0  0
   -2.2651  -21.8196   21.4750 C   0  0  0  0  0  0  0  0  0  0  0  0
   -3.2882  -22.5416   22.0514 C   0  0  0  0  0  0  0  0  0  0  0  0
   -3.2276  -22.3504   23.4525 C   0  0  0  0  0  0  0  0  0  0  0  0
   -4.0338  -22.8084   24.5238 C   0  0  0  0  0  0  0  0  0  0  0  0
   -3.7518  -22.4121   25.8317 C   0  0  0  0  0  0  0  0  0  0  0  0
   -2.6607  -21.5904   26.0784 C   0  0  0  0  0  0  0  0  0  0  0  0
   -1.8227  -21.1518   25.0335 C   0  0  0  0  0  0  0  0  0  0  0  0
   -2.1181  -21.5209   23.7028 C   0  0  0  0  0  0  0  0  0  0  0  0
    2.7237  -17.3586   19.5100 N   0  0  0  0  0  0  0  0  0  0  0  0
    3.4707  -16.4163   18.6217 C   0  0  0  0  0  0  0  0  0  0  0  0
    4.4972  -15.3599   19.0769 C   0  0  0  0  0  0  0  0  0  0  0  0
    5.1346  -15.3876   20.3137 C   0  0  0  0  0  0  0  0  0  0  0  0
    6.1573  -14.4691   20.6375 C   0  0  0  0  0  0  0  0  0  0  0  0
    6.5750  -13.5322   19.6726 C   0  0  0  0  0  0  0  0  0  0  0  0
    7.5909  -12.5897   19.7082 N   0  0  0  0  0  0  0  0  0  0  0  0
    7.6985  -11.9791   18.4899 C   0  0  0  0  0  0  0  0  0  0  0  0
    6.6877  -12.4475   17.6751 C   0  0  0  0  0  0  0  0  0  0  0  0
    5.9821  -13.4536   18.4110 C   0  0  0  0  0  0  0  0  0  0  0  0
    4.9292  -14.3686   18.1293 C   0  0  0  0  0  0  0  0  0  0  0  0
    6.5390  -12.0026   16.2550 C   0  0  0  0  0  0  0  0  0  0  0  0
    7.4607  -10.8003   15.9306 C   0  0  0  0  0  0  0  0  0  0  0  0
    8.8508  -10.9522   16.5676 C   0  0  0  0  0  0  0  0  0  0  0  0
    8.7438  -10.9984   18.1056 C   0  0  0  0  0  0  0  0  0  0  0  0
    1.2585  -18.2243   21.0499 H   0  0  0  0  0  0  0  0  0  0  0  0
    0.1577  -20.7334   20.1687 H   0  0  0  0  0  0  0  0  0  0  0  0
    1.3267  -21.0845   21.4246 H   0  0  0  0  0  0  0  0  0  0  0  0
   -0.0149  -19.9272   23.1298 H   0  0  0  0  0  0  0  0  0  0  0  0
   -1.0977  -19.2930   21.8573 H   0  0  0  0  0  0  0  0  0  0  0  0
   -2.0174  -21.6861   20.4300 H   0  0  0  0  0  0  0  0  0  0  0  0
   -4.0248  -23.1232   21.5122 H   0  0  0  0  0  0  0  0  0  0  0  0
   -4.8819  -23.4581   24.3220 H   0  0  0  0  0  0  0  0  0  0  0  0
   -4.3795  -22.7512   26.6496 H   0  0  0  0  0  0  0  0  0  0  0  0
   -2.4361  -21.2911   27.1004 H   0  0  0  0  0  0  0  0  0  0  0  0
   -0.9635  -20.5310   25.2648 H   0  0  0  0  0  0  0  0  0  0  0  0
    2.0357  -16.9906   20.1563 H   0  0  0  0  0  0  0  0  0  0  0  0
    3.9745  -17.0436   17.8781 H   0  0  0  0  0  0  0  0  0  0  0  0
    2.6859  -15.8606   18.1021 H   0  0  0  0  0  0  0  0  0  0  0  0
    4.8794  -16.1495   21.0436 H   0  0  0  0  0  0  0  0  0  0  0  0
    6.6456  -14.5234   21.6063 H   0  0  0  0  0  0  0  0  0  0  0  0
    8.2068  -12.4465   20.4960 H   0  0  0  0  0  0  0  0  0  0  0  0
    4.4845  -14.3531   17.1367 H   0  0  0  0  0  0  0  0  0  0  0  0
    5.4975  -11.7341   16.0460 H   0  0  0  0  0  0  0  0  0  0  0  0
    6.8019  -12.8407   15.5980 H   0  0  0  0  0  0  0  0  0  0  0  0
    6.9924   -9.8789   16.2989 H   0  0  0  0  0  0  0  0  0  0  0  0
    7.5530  -10.6990   14.8434 H   0  0  0  0  0  0  0  0  0  0  0  0
    9.5000  -10.1417   16.2331 H   0  0  0  0  0  0  0  0  0  0  0  0
    9.3087  -11.8823   16.2054 H   0  0  0  0  0  0  0  0  0  0  0  0
    8.4353  -10.0257   18.5012 H   0  0  0  0  0  0  0  0  0  0  0  0
    9.7114  -11.2670   18.5423 H   0  0  0  0  0  0  0  0  0  0  0  0
  1  2  2  0
  2  3  1  0
  3  4  1  0
  4  5  1  0
  5  6  1  0
  6  7  1  0
  7  8  2  0
  8  9  1  0
  9 10  2  0
 10 11  1  0
 11 12  2  0
 12 13  1  0
 13 14  2  0
  2 15  1  0
 15 16  1  0
 16 17  1  0
 17 18  2  0
 18 19  1  0
 19 20  2  0
 20 21  1  0
 21 22  1  0
 22 23  2  0
 23 24  1  0
 24 25  2  0
 23 26  1  0
 26 27  1  0
 27 28  1  0
 28 29  1  0
 14  6  1  0
 25 17  1  0
 14  9  1  0
 24 20  1  0
 29 22  1  0
  3 30  1  0
  4 31  1  0
  4 32  1  0
  5 33  1  0
  5 34  1  0
  7 35  1  0
  8 36  1  0
 10 37  1  0
 11 38  1  0
 12 39  1  0
 13 40  1  0
 15 41  1  0
 16 42  1  0
 16 43  1  0
 18 44  1  0
 19 45  1  0
 21 46  1  0
 25 47  1  0
 26 48  1  0
 26 49  1  0
 27 50  1  0
 27 51  1  0
 28 52  1  0
 28 53  1  0
 29 54  1  0
 29 55  1  0
M  END
>  <Energy>  (128) 
53.860669730102238

>  <compound_id>  (128) 
47150

>  <target_id>  (128) 
1

>  <reference_id>  (128) 
39

>  <inspiration_ids>  (128) 
[93, 39]

>  <energy_score>  (128) 
34.79396075649714

>  <distance_score>  (128) 
14.198847938092396

>  <path>  (128) 
/opt/xchem-fragalysis-2/maxwin/BulkDock/SCRATCH/511025/C47150-P39/C47150-P39.minimised.mol

>  <scratch_subdir>  (128) 
/opt/xchem-fragalysis-2/maxwin/BulkDock/SCRATCH/511025/C47150-P39

>  <fragmenstein_runtime>  (128) 
28.851144075393677

>  <fragmenstein_outcome>  (128) 
too moved

>  <fragmenstein_mode>  (128) 
expansion

>  <fragmenstein_error>  (128) 


$$$$
C54844-P94
     RDKit          3D

 32 35  0  0  0  0  0  0  0  0999 V2000
   -1.0109  -15.1160   16.8171 O   0  0  0  0  0  0  0  0  0  0  0  0
   -0.0388  -15.5584   17.3689 C   0  0  0  0  0  0  0  0  0  0  0  0
    0.0836  -16.5887   18.4196 N   0  0  0  0  0  0  0  0  0  0  0  0
   -0.9085  -17.2909   19.1540 C   0  0  0  0  0  0  0  0  0  0  0  0
   -0.6841  -18.3455   20.0323 C   0  0  0  0  0  0  0  0  0  0  0  0
   -1.8871  -18.6589   20.6510 N   0  0  0  0  0  0  0  0  0  0  0  0
   -2.1981  -19.6255   21.6211 C   0  0  0  0  0  0  0  0  0  0  0  0
   -3.4586  -19.7342   22.0822 C   0  0  0  0  0  0  0  0  0  0  0  0
   -4.4723  -18.8400   21.5487 C   0  0  0  0  0  0  0  0  0  0  0  0
   -4.1667  -17.9120   20.6157 C   0  0  0  0  0  0  0  0  0  0  0  0
   -2.8244  -17.7843   20.1208 C   0  0  0  0  0  0  0  0  0  0  0  0
   -2.2612  -16.9709   19.2291 N   0  0  0  0  0  0  0  0  0  0  0  0
    1.2907  -14.8509   16.9798 C   0  0  0  0  0  0  0  0  0  0  0  0
    2.5012  -14.9812   17.5222 N   0  0  0  0  0  0  0  0  0  0  0  0
    3.3067  -13.9361   17.0242 C   0  0  0  0  0  0  0  0  0  0  0  0
    4.6411  -13.5604   17.3064 C   0  0  0  0  0  0  0  0  0  0  0  0
    5.2050  -12.4206   16.6965 C   0  0  0  0  0  0  0  0  0  0  0  0
    4.4461  -11.6542   15.8174 C   0  0  0  0  0  0  0  0  0  0  0  0
    5.2003  -10.1143   15.0185 Br  0  0  0  0  0  0  0  0  0  0  0  0
    3.1218  -12.0052   15.5106 C   0  0  0  0  0  0  0  0  0  0  0  0
    2.5884  -13.1558   16.1306 C   0  0  0  0  0  0  0  0  0  0  0  0
    1.3502  -13.7727   16.0825 N   0  0  0  0  0  0  0  0  0  0  0  0
    1.0660  -16.7722   18.5919 H   0  0  0  0  0  0  0  0  0  0  0  0
    0.2147  -18.8876   20.2819 H   0  0  0  0  0  0  0  0  0  0  0  0
   -1.3831  -20.2445   21.9740 H   0  0  0  0  0  0  0  0  0  0  0  0
   -3.7330  -20.4630   22.8368 H   0  0  0  0  0  0  0  0  0  0  0  0
   -5.4878  -18.9408   21.9184 H   0  0  0  0  0  0  0  0  0  0  0  0
   -4.9198  -17.2457   20.2103 H   0  0  0  0  0  0  0  0  0  0  0  0
    5.2126  -14.1399   18.0246 H   0  0  0  0  0  0  0  0  0  0  0  0
    6.2228  -12.1362   16.9472 H   0  0  0  0  0  0  0  0  0  0  0  0
    2.5247  -11.4104   14.8274 H   0  0  0  0  0  0  0  0  0  0  0  0
    0.5462  -13.4548   15.5598 H   0  0  0  0  0  0  0  0  0  0  0  0
  1  2  2  0
  2  3  1  0
  3  4  1  0
  4  5  2  0
  5  6  1  0
  6  7  1  0
  7  8  2  0
  8  9  1  0
  9 10  2  0
 10 11  1  0
 11 12  2  0
  2 13  1  0
 13 14  2  0
 14 15  1  0
 15 16  2  0
 16 17  1  0
 17 18  2  0
 18 19  1  0
 18 20  1  0
 20 21  2  0
 21 22  1  0
 12  4  1  0
 22 13  1  0
 11  6  1  0
 21 15  1  0
  3 23  1  0
  5 24  1  0
  7 25  1  0
  8 26  1  0
  9 27  1  0
 10 28  1  0
 16 29  1  0
 17 30  1  0
 20 31  1  0
 22 32  1  0
M  END
>  <Energy>  (129) 
13.808208353805192

>  <compound_id>  (129) 
54844

>  <target_id>  (129) 
1

>  <reference_id>  (129) 
94

>  <inspiration_ids>  (129) 
[94, 103]

>  <energy_score>  (129) 
-38.69131924238144

>  <distance_score>  (129) 
16.856403344446246

>  <path>  (129) 
/opt/xchem-fragalysis-2/maxwin/BulkDock/SCRATCH/511025/C54844-P94/C54844-P94.minimised.mol

>  <scratch_subdir>  (129) 
/opt/xchem-fragalysis-2/maxwin/BulkDock/SCRATCH/511025/C54844-P94

>  <fragmenstein_runtime>  (129) 
23.76398992538452

>  <fragmenstein_outcome>  (129) 
too moved

>  <fragmenstein_mode>  (129) 
expansion

>  <fragmenstein_error>  (129) 


$$$$
C54844-P103
     RDKit          3D

 32 35  0  0  0  0  0  0  0  0999 V2000
   -3.9099   -9.3668   18.1952 O   0  0  0  0  0  0  0  0  0  0  0  0
   -2.9469  -10.0748   18.0738 C   0  0  0  0  0  0  0  0  0  0  0  0
   -2.7853  -11.5312   18.3153 N   0  0  0  0  0  0  0  0  0  0  0  0
   -3.6856  -12.4905   18.8450 C   0  0  0  0  0  0  0  0  0  0  0  0
   -5.0027  -12.3747   19.2687 C   0  0  0  0  0  0  0  0  0  0  0  0
   -5.4071  -13.6169   19.7570 N   0  0  0  0  0  0  0  0  0  0  0  0
   -6.5933  -14.0122   20.4006 C   0  0  0  0  0  0  0  0  0  0  0  0
   -6.7249  -15.2756   20.8519 C   0  0  0  0  0  0  0  0  0  0  0  0
   -5.6324  -16.2142   20.6411 C   0  0  0  0  0  0  0  0  0  0  0  0
   -4.4975  -15.8372   20.0125 C   0  0  0  0  0  0  0  0  0  0  0  0
   -4.3322  -14.4817   19.5554 C   0  0  0  0  0  0  0  0  0  0  0  0
   -3.2929  -13.8203   19.0514 N   0  0  0  0  0  0  0  0  0  0  0  0
   -1.6561   -9.3448   17.5597 C   0  0  0  0  0  0  0  0  0  0  0  0
   -1.3126   -8.0863   17.8920 N   0  0  0  0  0  0  0  0  0  0  0  0
   -0.0258   -7.8437   17.4106 C   0  0  0  0  0  0  0  0  0  0  0  0
    0.8578   -6.7550   17.6001 C   0  0  0  0  0  0  0  0  0  0  0  0
    2.1761   -6.8302   17.1069 C   0  0  0  0  0  0  0  0  0  0  0  0
    2.5958   -7.9664   16.4181 C   0  0  0  0  0  0  0  0  0  0  0  0
    4.4063   -8.1573   15.9139 Br  0  0  0  0  0  0  0  0  0  0  0  0
    1.7105   -9.0178   16.1362 C   0  0  0  0  0  0  0  0  0  0  0  0
    0.4061   -8.9241   16.6584 C   0  0  0  0  0  0  0  0  0  0  0  0
   -0.6834   -9.7902   16.6610 N   0  0  0  0  0  0  0  0  0  0  0  0
   -1.8179  -11.7813   18.1914 H   0  0  0  0  0  0  0  0  0  0  0  0
   -5.6687  -11.5241   19.2966 H   0  0  0  0  0  0  0  0  0  0  0  0
   -7.3611  -13.2576   20.5172 H   0  0  0  0  0  0  0  0  0  0  0  0
   -7.6235  -15.6141   21.3561 H   0  0  0  0  0  0  0  0  0  0  0  0
   -5.7587  -17.2335   20.9934 H   0  0  0  0  0  0  0  0  0  0  0  0
   -3.6808  -16.5323   19.8515 H   0  0  0  0  0  0  0  0  0  0  0  0
    0.5286   -5.9003   18.1813 H   0  0  0  0  0  0  0  0  0  0  0  0
    2.8660   -6.0163   17.3106 H   0  0  0  0  0  0  0  0  0  0  0  0
    2.0384   -9.9012   15.5984 H   0  0  0  0  0  0  0  0  0  0  0  0
   -0.7148  -10.6759   16.1830 H   0  0  0  0  0  0  0  0  0  0  0  0
  1  2  2  0
  2  3  1  0
  3  4  1  0
  4  5  2  0
  5  6  1  0
  6  7  1  0
  7  8  2  0
  8  9  1  0
  9 10  2  0
 10 11  1  0
 11 12  2  0
  2 13  1  0
 13 14  2  0
 14 15  1  0
 15 16  2  0
 16 17  1  0
 17 18  2  0
 18 19  1  0
 18 20  1  0
 20 21  2  0
 21 22  1  0
 12  4  1  0
 22 13  1  0
 11  6  1  0
 21 15  1  0
  3 23  1  0
  5 24  1  0
  7 25  1  0
  8 26  1  0
  9 27  1  0
 10 28  1  0
 16 29  1  0
 17 30  1  0
 20 31  1  0
 22 32  1  0
M  END
>  <Energy>  (130) 
26.594941957925855

>  <compound_id>  (130) 
54844

>  <target_id>  (130) 
1

>  <reference_id>  (130) 
103

>  <inspiration_ids>  (130) 
[94, 103]

>  <energy_score>  (130) 
-25.904585638261267

>  <distance_score>  (130) 
16.61191306380749

>  <path>  (130) 
/opt/xchem-fragalysis-2/maxwin/BulkDock/SCRATCH/511025/C54844-P103/C54844-P103.minimised.mol

>  <scratch_subdir>  (130) 
/opt/xchem-fragalysis-2/maxwin/BulkDock/SCRATCH/511025/C54844-P103

>  <fragmenstein_runtime>  (130) 
27.835727214813232

>  <fragmenstein_outcome>  (130) 
too moved

>  <fragmenstein_mode>  (130) 
expansion

>  <fragmenstein_error>  (130) 


$$$$
C52410-P94
     RDKit          3D

 38 41  0  0  0  0  0  0  0  0999 V2000
   -2.0942  -15.0092   28.9459 O   0  0  0  0  0  0  0  0  0  0  0  0
   -2.1966  -15.3081   27.7574 C   0  0  0  0  0  0  0  0  0  0  0  0
   -2.1987  -16.9516   27.5913 C   0  0  0  0  0  0  0  0  0  0  0  0
   -3.1457  -17.6334   28.6271 C   0  0  0  0  0  0  0  0  0  0  0  0
   -2.8770  -18.6552   29.5480 C   0  0  0  0  0  0  0  0  0  0  0  0
   -3.9170  -18.5981   30.4418 N   0  0  0  0  0  0  0  0  0  0  0  0
   -4.1989  -19.0831   31.6994 C   0  0  0  0  0  0  0  0  0  0  0  0
   -5.2528  -18.4469   32.2419 C   0  0  0  0  0  0  0  0  0  0  0  0
   -5.9343  -17.2003   31.1704 S   0  0  0  0  0  0  0  0  0  0  0  0
   -4.7868  -17.6736   29.9657 C   0  0  0  0  0  0  0  0  0  0  0  0
   -4.4478  -17.1888   28.8064 N   0  0  0  0  0  0  0  0  0  0  0  0
   -2.4592  -14.2454   26.3518 N   0  0  0  0  0  0  0  0  0  0  0  0
   -2.8067  -12.2743   26.2625 C   0  0  0  0  0  0  0  0  0  0  0  0
   -2.4675  -10.3453   27.0507 C   0  0  0  0  0  0  0  0  0  0  0  0
   -2.1259   -8.6683   26.3316 C   0  0  0  0  0  0  0  0  0  0  0  0
   -2.3221   -8.1778   25.0977 N   0  0  0  0  0  0  0  0  0  0  0  0
   -1.2709   -7.2682   24.8093 C   0  0  0  0  0  0  0  0  0  0  0  0
   -0.8673   -6.6681   23.5895 C   0  0  0  0  0  0  0  0  0  0  0  0
    0.3602   -5.9802   23.5148 C   0  0  0  0  0  0  0  0  0  0  0  0
    1.1673   -5.8568   24.6451 C   0  0  0  0  0  0  0  0  0  0  0  0
    0.7681   -6.4090   25.8764 C   0  0  0  0  0  0  0  0  0  0  0  0
   -0.4523   -7.1204   25.9191 C   0  0  0  0  0  0  0  0  0  0  0  0
   -1.0998   -7.8615   26.9084 N   0  0  0  0  0  0  0  0  0  0  0  0
   -2.4542  -17.2845   26.5987 H   0  0  0  0  0  0  0  0  0  0  0  0
   -1.2083  -17.3361   27.8572 H   0  0  0  0  0  0  0  0  0  0  0  0
   -1.9986  -19.2538   29.7321 H   0  0  0  0  0  0  0  0  0  0  0  0
   -3.5926  -19.8483   32.1535 H   0  0  0  0  0  0  0  0  0  0  0  0
   -5.6793  -18.6431   33.2161 H   0  0  0  0  0  0  0  0  0  0  0  0
   -2.4134  -14.7881   25.4966 H   0  0  0  0  0  0  0  0  0  0  0  0
   -3.4797  -12.3069   25.4164 H   0  0  0  0  0  0  0  0  0  0  0  0
   -1.9704  -12.1943   25.6280 H   0  0  0  0  0  0  0  0  0  0  0  0
   -3.0550  -10.2138   27.9918 H   0  0  0  0  0  0  0  0  0  0  0  0
   -1.4584  -10.1641   27.5666 H   0  0  0  0  0  0  0  0  0  0  0  0
   -1.4789   -6.8035   22.7032 H   0  0  0  0  0  0  0  0  0  0  0  0
    0.6772   -5.5548   22.5659 H   0  0  0  0  0  0  0  0  0  0  0  0
    2.1113   -5.3211   24.5763 H   0  0  0  0  0  0  0  0  0  0  0  0
    1.3952   -6.3126   26.7567 H   0  0  0  0  0  0  0  0  0  0  0  0
   -0.7341   -8.0098   27.8363 H   0  0  0  0  0  0  0  0  0  0  0  0
  1  2  2  0
  2  3  1  0
  3  4  1  0
  4  5  2  0
  5  6  1  0
  6  7  1  0
  7  8  2  0
  8  9  1  0
  9 10  1  0
 10 11  2  0
  2 12  1  0
 12 13  1  0
 13 14  1  0
 14 15  1  0
 15 16  2  0
 16 17  1  0
 17 18  2  0
 18 19  1  0
 19 20  2  0
 20 21  1  0
 21 22  2  0
 22 23  1  0
 11  4  1  0
 23 15  1  0
 10  6  1  0
 22 17  1  0
  3 24  1  0
  3 25  1  0
  5 26  1  0
  7 27  1  0
  8 28  1  0
 12 29  1  0
 13 30  1  0
 13 31  1  0
 14 32  1  0
 14 33  1  0
 18 34  1  0
 19 35  1  0
 20 36  1  0
 21 37  1  0
 23 38  1  0
M  END
>  <Energy>  (131) 
389.18000965641744

>  <compound_id>  (131) 
52410

>  <target_id>  (131) 
1

>  <reference_id>  (131) 
94

>  <inspiration_ids>  (131) 
[94, 103]

>  <energy_score>  (131) 
296.342392700694

>  <distance_score>  (131) 
15.625010824633128

>  <path>  (131) 
/opt/xchem-fragalysis-2/maxwin/BulkDock/SCRATCH/511025/C52410-P94/C52410-P94.minimised.mol

>  <scratch_subdir>  (131) 
/opt/xchem-fragalysis-2/maxwin/BulkDock/SCRATCH/511025/C52410-P94

>  <fragmenstein_runtime>  (131) 
14.729930877685547

>  <fragmenstein_outcome>  (131) 
too moved

>  <fragmenstein_mode>  (131) 
expansion

>  <fragmenstein_error>  (131) 


$$$$
C52410-P103
     RDKit          3D

 38 41  0  0  0  0  0  0  0  0999 V2000
    1.0977  -11.9782   23.0694 O   0  0  0  0  0  0  0  0  0  0  0  0
   -0.0565  -12.2256   22.7459 C   0  0  0  0  0  0  0  0  0  0  0  0
   -0.7165  -14.0201   23.7354 C   0  0  0  0  0  0  0  0  0  0  0  0
   -1.9973  -14.8544   25.1508 C   0  0  0  0  0  0  0  0  0  0  0  0
   -2.1855  -15.0460   26.8498 C   0  0  0  0  0  0  0  0  0  0  0  0
   -2.4682  -16.4192   27.4495 N   0  0  0  0  0  0  0  0  0  0  0  0
   -2.6850  -16.9448   28.7132 C   0  0  0  0  0  0  0  0  0  0  0  0
   -2.8674  -18.2746   28.6739 C   0  0  0  0  0  0  0  0  0  0  0  0
   -2.6704  -18.9272   27.0400 S   0  0  0  0  0  0  0  0  0  0  0  0
   -2.4806  -17.2902   26.4089 C   0  0  0  0  0  0  0  0  0  0  0  0
   -2.5732  -16.4666   25.1310 N   0  0  0  0  0  0  0  0  0  0  0  0
   -0.9804  -11.0719   21.7131 N   0  0  0  0  0  0  0  0  0  0  0  0
   -0.6207   -9.6399   21.1706 C   0  0  0  0  0  0  0  0  0  0  0  0
    0.2187   -9.1541   19.8932 C   0  0  0  0  0  0  0  0  0  0  0  0
    1.5194   -8.3056   19.9314 C   0  0  0  0  0  0  0  0  0  0  0  0
    1.8970   -7.4487   18.9818 N   0  0  0  0  0  0  0  0  0  0  0  0
    3.2411   -7.2018   19.1781 C   0  0  0  0  0  0  0  0  0  0  0  0
    4.1671   -6.5226   18.3682 C   0  0  0  0  0  0  0  0  0  0  0  0
    5.5141   -6.5085   18.7549 C   0  0  0  0  0  0  0  0  0  0  0  0
    5.9295   -7.0918   19.9510 C   0  0  0  0  0  0  0  0  0  0  0  0
    5.0149   -7.7554   20.7769 C   0  0  0  0  0  0  0  0  0  0  0  0
    3.6810   -7.8079   20.3461 C   0  0  0  0  0  0  0  0  0  0  0  0
    2.5578   -8.4574   20.8320 N   0  0  0  0  0  0  0  0  0  0  0  0
   -0.9651  -14.6673   22.8837 H   0  0  0  0  0  0  0  0  0  0  0  0
    0.2213  -14.2772   24.2248 H   0  0  0  0  0  0  0  0  0  0  0  0
   -1.8840  -14.6360   27.7930 H   0  0  0  0  0  0  0  0  0  0  0  0
   -2.7158  -16.3029   29.5803 H   0  0  0  0  0  0  0  0  0  0  0  0
   -3.0760  -18.9107   29.5254 H   0  0  0  0  0  0  0  0  0  0  0  0
   -1.8723  -11.4898   21.4879 H   0  0  0  0  0  0  0  0  0  0  0  0
   -1.6280   -9.2276   21.0212 H   0  0  0  0  0  0  0  0  0  0  0  0
   -0.2225   -9.1061   22.0341 H   0  0  0  0  0  0  0  0  0  0  0  0
    0.3126   -9.9513   19.1637 H   0  0  0  0  0  0  0  0  0  0  0  0
   -0.4773   -8.4605   19.3918 H   0  0  0  0  0  0  0  0  0  0  0  0
    3.8404   -6.0740   17.4367 H   0  0  0  0  0  0  0  0  0  0  0  0
    6.2353   -6.0518   18.0937 H   0  0  0  0  0  0  0  0  0  0  0  0
    6.9746   -7.0617   20.2445 H   0  0  0  0  0  0  0  0  0  0  0  0
    5.3310   -8.2493   21.6891 H   0  0  0  0  0  0  0  0  0  0  0  0
    2.5398   -9.1528   21.5711 H   0  0  0  0  0  0  0  0  0  0  0  0
  1  2  2  0
  2  3  1  0
  3  4  1  0
  4  5  2  0
  5  6  1  0
  6  7  1  0
  7  8  2  0
  8  9  1  0
  9 10  1  0
 10 11  2  0
  2 12  1  0
 12 13  1  0
 13 14  1  0
 14 15  1  0
 15 16  2  0
 16 17  1  0
 17 18  2  0
 18 19  1  0
 19 20  2  0
 20 21  1  0
 21 22  2  0
 22 23  1  0
 11  4  1  0
 23 15  1  0
 10  6  1  0
 22 17  1  0
  3 24  1  0
  3 25  1  0
  5 26  1  0
  7 27  1  0
  8 28  1  0
 12 29  1  0
 13 30  1  0
 13 31  1  0
 14 32  1  0
 14 33  1  0
 18 34  1  0
 19 35  1  0
 20 36  1  0
 21 37  1  0
 23 38  1  0
M  END
>  <Energy>  (132) 
527.59189657673051

>  <compound_id>  (132) 
52410

>  <target_id>  (132) 
1

>  <reference_id>  (132) 
103

>  <inspiration_ids>  (132) 
[94, 103]

>  <energy_score>  (132) 
434.75427962100883

>  <distance_score>  (132) 
14.191366161764753

>  <path>  (132) 
/opt/xchem-fragalysis-2/maxwin/BulkDock/SCRATCH/511025/C52410-P103/C52410-P103.minimised.mol

>  <scratch_subdir>  (132) 
/opt/xchem-fragalysis-2/maxwin/BulkDock/SCRATCH/511025/C52410-P103

>  <fragmenstein_runtime>  (132) 
15.005105018615723

>  <fragmenstein_outcome>  (132) 
too moved

>  <fragmenstein_mode>  (132) 
expansion

>  <fragmenstein_error>  (132) 


$$$$
C41405-P94
     RDKit          3D

 41 44  0  0  0  0  0  0  0  0999 V2000
  -13.6800  -13.0603   29.6571 O   0  0  0  0  0  0  0  0  0  0  0  0
  -13.4245  -13.8124   28.7392 C   0  0  0  0  0  0  0  0  0  0  0  0
  -14.3758  -15.3312   28.7678 C   0  0  0  0  0  0  0  0  0  0  0  0
  -15.0798  -16.1751   30.2628 C   0  0  0  0  0  0  0  0  0  0  0  0
  -16.0408  -17.9144   30.5737 C   0  0  0  0  0  0  0  0  0  0  0  0
  -15.0587  -18.9470   32.0431 N   0  0  0  0  0  0  0  0  0  0  0  0
  -15.5102  -19.9178   32.9321 C   0  0  0  0  0  0  0  0  0  0  0  0
  -14.9137  -19.9921   34.1361 C   0  0  0  0  0  0  0  0  0  0  0  0
  -13.9021  -19.0584   34.6913 C   0  0  0  0  0  0  0  0  0  0  0  0
  -13.2770  -17.9965   34.1283 C   0  0  0  0  0  0  0  0  0  0  0  0
  -13.5058  -17.6930   32.7200 C   0  0  0  0  0  0  0  0  0  0  0  0
  -13.6458  -16.2246   31.6695 N   0  0  0  0  0  0  0  0  0  0  0  0
  -12.4656  -13.6068   27.4752 N   0  0  0  0  0  0  0  0  0  0  0  0
  -11.5850  -12.2247   26.9506 C   0  0  0  0  0  0  0  0  0  0  0  0
  -10.0746  -12.1861   26.0048 C   0  0  0  0  0  0  0  0  0  0  0  0
   -9.4682  -10.9302   25.0479 C   0  0  0  0  0  0  0  0  0  0  0  0
   -9.0569  -11.0592   23.7723 N   0  0  0  0  0  0  0  0  0  0  0  0
   -8.5254   -9.8393   23.3317 C   0  0  0  0  0  0  0  0  0  0  0  0
   -8.0314   -9.4260   22.0605 C   0  0  0  0  0  0  0  0  0  0  0  0
   -7.5415   -8.1137   21.8742 C   0  0  0  0  0  0  0  0  0  0  0  0
   -7.5204   -7.2224   22.9502 C   0  0  0  0  0  0  0  0  0  0  0  0
   -8.0018   -7.6145   24.2219 C   0  0  0  0  0  0  0  0  0  0  0  0
   -8.5097   -8.9317   24.3816 C   0  0  0  0  0  0  0  0  0  0  0  0
   -9.0785   -9.6418   25.4512 N   0  0  0  0  0  0  0  0  0  0  0  0
  -13.7721  -16.0507   28.2064 H   0  0  0  0  0  0  0  0  0  0  0  0
  -15.2874  -15.1061   28.1987 H   0  0  0  0  0  0  0  0  0  0  0  0
  -17.0266  -17.9853   31.0387 H   0  0  0  0  0  0  0  0  0  0  0  0
  -16.3238  -20.5530   32.6072 H   0  0  0  0  0  0  0  0  0  0  0  0
  -15.2708  -20.7629   34.8145 H   0  0  0  0  0  0  0  0  0  0  0  0
  -13.6664  -19.2335   35.7396 H   0  0  0  0  0  0  0  0  0  0  0  0
  -12.5879  -17.3669   34.6811 H   0  0  0  0  0  0  0  0  0  0  0  0
  -12.4176  -14.4674   26.9445 H   0  0  0  0  0  0  0  0  0  0  0  0
  -11.4187  -11.6453   27.8645 H   0  0  0  0  0  0  0  0  0  0  0  0
  -12.3258  -11.6988   26.3383 H   0  0  0  0  0  0  0  0  0  0  0  0
  -10.1937  -13.0155   25.2943 H   0  0  0  0  0  0  0  0  0  0  0  0
   -9.2776  -12.4702   26.6983 H   0  0  0  0  0  0  0  0  0  0  0  0
   -8.0385  -10.1337   21.2378 H   0  0  0  0  0  0  0  0  0  0  0  0
   -7.1703   -7.8099   20.8986 H   0  0  0  0  0  0  0  0  0  0  0  0
   -7.1406   -6.2129   22.8059 H   0  0  0  0  0  0  0  0  0  0  0  0
   -8.0078   -6.9116   25.0495 H   0  0  0  0  0  0  0  0  0  0  0  0
   -9.2385   -9.2706   26.3743 H   0  0  0  0  0  0  0  0  0  0  0  0
  1  2  2  0
  2  3  1  0
  3  4  1  0
  4  5  2  0
  5  6  1  0
  6  7  1  0
  7  8  2  0
  8  9  1  0
  9 10  2  0
 10 11  1  0
 11 12  2  0
  2 13  1  0
 13 14  1  0
 14 15  1  0
 15 16  1  0
 16 17  2  0
 17 18  1  0
 18 19  2  0
 19 20  1  0
 20 21  2  0
 21 22  1  0
 22 23  2  0
 23 24  1  0
 12  4  1  0
 24 16  1  0
 11  6  1  0
 23 18  1  0
  3 25  1  0
  3 26  1  0
  5 27  1  0
  7 28  1  0
  8 29  1  0
  9 30  1  0
 10 31  1  0
 13 32  1  0
 14 33  1  0
 14 34  1  0
 15 35  1  0
 15 36  1  0
 19 37  1  0
 20 38  1  0
 21 39  1  0
 22 40  1  0
 24 41  1  0
M  END
>  <Energy>  (133) 
855.44696567281733

>  <compound_id>  (133) 
41405

>  <target_id>  (133) 
1

>  <reference_id>  (133) 
94

>  <inspiration_ids>  (133) 
[94, 103]

>  <energy_score>  (133) 
779.915796019379

>  <distance_score>  (133) 
19.376410982791782

>  <path>  (133) 
/opt/xchem-fragalysis-2/maxwin/BulkDock/SCRATCH/511025/C41405-P94/C41405-P94.minimised.mol

>  <scratch_subdir>  (133) 
/opt/xchem-fragalysis-2/maxwin/BulkDock/SCRATCH/511025/C41405-P94

>  <fragmenstein_runtime>  (133) 
25.833351612091064

>  <fragmenstein_outcome>  (133) 
too moved

>  <fragmenstein_mode>  (133) 
expansion

>  <fragmenstein_error>  (133) 


$$$$
C41405-P103
     RDKit          3D

 41 44  0  0  0  0  0  0  0  0999 V2000
    1.9593   -7.2850   26.6354 O   0  0  0  0  0  0  0  0  0  0  0  0
    3.0916   -7.4893   26.9782 C   0  0  0  0  0  0  0  0  0  0  0  0
    3.3480   -8.5244   28.1338 C   0  0  0  0  0  0  0  0  0  0  0  0
    2.1506   -9.0788   28.9513 C   0  0  0  0  0  0  0  0  0  0  0  0
    0.9501   -8.4875   29.3090 C   0  0  0  0  0  0  0  0  0  0  0  0
    0.4314   -9.2372   30.3520 N   0  0  0  0  0  0  0  0  0  0  0  0
   -0.6344   -8.9491   31.2062 C   0  0  0  0  0  0  0  0  0  0  0  0
   -0.8687   -9.7310   32.2718 C   0  0  0  0  0  0  0  0  0  0  0  0
    0.0374  -10.8361   32.5376 C   0  0  0  0  0  0  0  0  0  0  0  0
    1.0722  -11.0975   31.7213 C   0  0  0  0  0  0  0  0  0  0  0  0
    1.2998  -10.2976   30.5560 C   0  0  0  0  0  0  0  0  0  0  0  0
    2.2879  -10.2687   29.6742 N   0  0  0  0  0  0  0  0  0  0  0  0
    4.3658   -6.9324   26.4714 N   0  0  0  0  0  0  0  0  0  0  0  0
    4.6329   -5.8746   25.4488 C   0  0  0  0  0  0  0  0  0  0  0  0
    6.0566   -5.8243   24.7848 C   0  0  0  0  0  0  0  0  0  0  0  0
    6.2970   -4.6776   23.8195 C   0  0  0  0  0  0  0  0  0  0  0  0
    7.2002   -3.7169   23.9332 N   0  0  0  0  0  0  0  0  0  0  0  0
    6.9759   -2.8491   22.8885 C   0  0  0  0  0  0  0  0  0  0  0  0
    7.5487   -1.5999   22.6053 C   0  0  0  0  0  0  0  0  0  0  0  0
    7.0551   -0.8578   21.5237 C   0  0  0  0  0  0  0  0  0  0  0  0
    6.0213   -1.3580   20.7340 C   0  0  0  0  0  0  0  0  0  0  0  0
    5.4602   -2.6159   20.9830 C   0  0  0  0  0  0  0  0  0  0  0  0
    5.9639   -3.3272   22.0711 C   0  0  0  0  0  0  0  0  0  0  0  0
    5.6059   -4.5268   22.6369 N   0  0  0  0  0  0  0  0  0  0  0  0
    3.8855   -9.3716   27.6981 H   0  0  0  0  0  0  0  0  0  0  0  0
    4.0180   -8.0418   28.8569 H   0  0  0  0  0  0  0  0  0  0  0  0
    0.4969   -7.5526   29.0105 H   0  0  0  0  0  0  0  0  0  0  0  0
   -1.1774   -8.0325   31.0215 H   0  0  0  0  0  0  0  0  0  0  0  0
   -1.6472   -9.5055   32.9927 H   0  0  0  0  0  0  0  0  0  0  0  0
   -0.1011  -11.4092   33.4506 H   0  0  0  0  0  0  0  0  0  0  0  0
    1.7945  -11.8583   31.9873 H   0  0  0  0  0  0  0  0  0  0  0  0
    5.1402   -7.3915   26.9411 H   0  0  0  0  0  0  0  0  0  0  0  0
    3.8619   -5.9851   24.6777 H   0  0  0  0  0  0  0  0  0  0  0  0
    4.4364   -4.9214   25.9531 H   0  0  0  0  0  0  0  0  0  0  0  0
    6.2323   -6.7712   24.2599 H   0  0  0  0  0  0  0  0  0  0  0  0
    6.8065   -5.7689   25.5835 H   0  0  0  0  0  0  0  0  0  0  0  0
    8.3187   -1.2035   23.2593 H   0  0  0  0  0  0  0  0  0  0  0  0
    7.4468    0.1371   21.3377 H   0  0  0  0  0  0  0  0  0  0  0  0
    5.6220   -0.7663   19.9148 H   0  0  0  0  0  0  0  0  0  0  0  0
    4.6408   -2.9937   20.3801 H   0  0  0  0  0  0  0  0  0  0  0  0
    4.8679   -5.1323   22.3068 H   0  0  0  0  0  0  0  0  0  0  0  0
  1  2  2  0
  2  3  1  0
  3  4  1  0
  4  5  2  0
  5  6  1  0
  6  7  1  0
  7  8  2  0
  8  9  1  0
  9 10  2  0
 10 11  1  0
 11 12  2  0
  2 13  1  0
 13 14  1  0
 14 15  1  0
 15 16  1  0
 16 17  2  0
 17 18  1  0
 18 19  2  0
 19 20  1  0
 20 21  2  0
 21 22  1  0
 22 23  2  0
 23 24  1  0
 12  4  1  0
 24 16  1  0
 11  6  1  0
 23 18  1  0
  3 25  1  0
  3 26  1  0
  5 27  1  0
  7 28  1  0
  8 29  1  0
  9 30  1  0
 10 31  1  0
 13 32  1  0
 14 33  1  0
 14 34  1  0
 15 35  1  0
 15 36  1  0
 19 37  1  0
 20 38  1  0
 21 39  1  0
 22 40  1  0
 24 41  1  0
M  END
>  <Energy>  (134) 
64.890089510383746

>  <compound_id>  (134) 
41405

>  <target_id>  (134) 
1

>  <reference_id>  (134) 
103

>  <inspiration_ids>  (134) 
[94, 103]

>  <energy_score>  (134) 
-10.641080143054808

>  <distance_score>  (134) 
15.932246598424925

>  <path>  (134) 
/opt/xchem-fragalysis-2/maxwin/BulkDock/SCRATCH/511025/C41405-P103/C41405-P103.minimised.mol

>  <scratch_subdir>  (134) 
/opt/xchem-fragalysis-2/maxwin/BulkDock/SCRATCH/511025/C41405-P103

>  <fragmenstein_runtime>  (134) 
29.434303760528564

>  <fragmenstein_outcome>  (134) 
too moved

>  <fragmenstein_mode>  (134) 
expansion

>  <fragmenstein_error>  (134) 


$$$$
C54848-P94
     RDKit          3D

 34 37  0  0  0  0  0  0  0  0999 V2000
   -2.2899  -13.4587   16.6017 O   0  0  0  0  0  0  0  0  0  0  0  0
   -1.3887  -14.1353   17.0895 C   0  0  0  0  0  0  0  0  0  0  0  0
   -0.0380  -13.6587   17.0665 O   0  0  0  0  0  0  0  0  0  0  0  0
    0.1178  -12.3074   16.4211 C   0  0  0  0  0  0  0  0  0  0  0  0
    1.5340  -11.5714   16.4444 C   0  0  0  0  0  0  0  0  0  0  0  0
    2.5873  -11.7807   15.6552 N   0  0  0  0  0  0  0  0  0  0  0  0
    3.4175  -10.6631   15.7426 C   0  0  0  0  0  0  0  0  0  0  0  0
    4.6037  -10.3389   15.0512 C   0  0  0  0  0  0  0  0  0  0  0  0
    5.2157   -9.0922   15.2634 C   0  0  0  0  0  0  0  0  0  0  0  0
    4.6787   -8.1880   16.1804 C   0  0  0  0  0  0  0  0  0  0  0  0
    3.5180   -8.5103   16.8954 C   0  0  0  0  0  0  0  0  0  0  0  0
    2.8402   -7.3918   18.0072 Cl  0  0  0  0  0  0  0  0  0  0  0  0
    2.9017   -9.7455   16.6416 C   0  0  0  0  0  0  0  0  0  0  0  0
    1.7346  -10.3404   17.0865 N   0  0  0  0  0  0  0  0  0  0  0  0
   -1.6589  -15.4386   17.7819 C   0  0  0  0  0  0  0  0  0  0  0  0
   -0.7954  -16.4090   18.2879 C   0  0  0  0  0  0  0  0  0  0  0  0
   -1.4326  -17.4868   18.8648 N   0  0  0  0  0  0  0  0  0  0  0  0
   -2.7094  -17.2720   18.6774 C   0  0  0  0  0  0  0  0  0  0  0  0
   -3.8323  -18.1201   18.9292 C   0  0  0  0  0  0  0  0  0  0  0  0
   -5.0828  -17.6729   18.7253 C   0  0  0  0  0  0  0  0  0  0  0  0
   -5.3009  -16.3441   18.1898 C   0  0  0  0  0  0  0  0  0  0  0  0
   -4.2436  -15.5637   17.8803 C   0  0  0  0  0  0  0  0  0  0  0  0
   -2.9309  -16.0154   18.0943 N   0  0  0  0  0  0  0  0  0  0  0  0
   -0.5996  -11.6321   16.9031 H   0  0  0  0  0  0  0  0  0  0  0  0
   -0.1500  -12.4298   15.3650 H   0  0  0  0  0  0  0  0  0  0  0  0
    5.0132  -11.0437   14.3340 H   0  0  0  0  0  0  0  0  0  0  0  0
    6.1090   -8.8406   14.6958 H   0  0  0  0  0  0  0  0  0  0  0  0
    5.1509   -7.2203   16.3257 H   0  0  0  0  0  0  0  0  0  0  0  0
    1.0825   -9.9011   17.7204 H   0  0  0  0  0  0  0  0  0  0  0  0
    0.2875  -16.3873   18.2498 H   0  0  0  0  0  0  0  0  0  0  0  0
   -3.6401  -19.1336   19.2613 H   0  0  0  0  0  0  0  0  0  0  0  0
   -5.9425  -18.3121   18.8986 H   0  0  0  0  0  0  0  0  0  0  0  0
   -6.3190  -16.0137   18.0093 H   0  0  0  0  0  0  0  0  0  0  0  0
   -4.3616  -14.5799   17.4423 H   0  0  0  0  0  0  0  0  0  0  0  0
  1  2  2  0
  2  3  1  0
  3  4  1  0
  4  5  1  0
  5  6  2  0
  6  7  1  0
  7  8  2  0
  8  9  1  0
  9 10  2  0
 10 11  1  0
 11 12  1  0
 11 13  2  0
 13 14  1  0
  2 15  1  0
 15 16  2  0
 16 17  1  0
 17 18  2  0
 18 19  1  0
 19 20  2  0
 20 21  1  0
 21 22  2  0
 22 23  1  0
 14  5  1  0
 23 15  1  0
 13  7  1  0
 23 18  1  0
  4 24  1  0
  4 25  1  0
  8 26  1  0
  9 27  1  0
 10 28  1  0
 14 29  1  0
 16 30  1  0
 19 31  1  0
 20 32  1  0
 21 33  1  0
 22 34  1  0
M  END
>  <Energy>  (135) 
21.355185929169561

>  <compound_id>  (135) 
54848

>  <target_id>  (135) 
1

>  <reference_id>  (135) 
94

>  <inspiration_ids>  (135) 
[94, 103]

>  <energy_score>  (135) 
-12.719249924439367

>  <distance_score>  (135) 
16.143011400736867

>  <path>  (135) 
/opt/xchem-fragalysis-2/maxwin/BulkDock/SCRATCH/511025/C54848-P94/C54848-P94.minimised.mol

>  <scratch_subdir>  (135) 
/opt/xchem-fragalysis-2/maxwin/BulkDock/SCRATCH/511025/C54848-P94

>  <fragmenstein_runtime>  (135) 
15.239709615707397

>  <fragmenstein_outcome>  (135) 
too moved

>  <fragmenstein_mode>  (135) 
expansion

>  <fragmenstein_error>  (135) 


$$$$
C54848-P103
     RDKit          3D

 34 37  0  0  0  0  0  0  0  0999 V2000
    1.2176  -13.6823   26.3599 O   0  0  0  0  0  0  0  0  0  0  0  0
    0.8125  -13.7255   25.2166 C   0  0  0  0  0  0  0  0  0  0  0  0
    1.9174  -13.1909   24.0191 O   0  0  0  0  0  0  0  0  0  0  0  0
    3.5157  -13.7194   23.7087 C   0  0  0  0  0  0  0  0  0  0  0  0
    4.6013  -12.8993   22.7962 C   0  0  0  0  0  0  0  0  0  0  0  0
    5.6941  -12.2362   23.2205 N   0  0  0  0  0  0  0  0  0  0  0  0
    6.3090  -11.6474   22.1269 C   0  0  0  0  0  0  0  0  0  0  0  0
    7.3584  -10.7042   22.0394 C   0  0  0  0  0  0  0  0  0  0  0  0
    7.8128  -10.2788   20.7789 C   0  0  0  0  0  0  0  0  0  0  0  0
    7.2381  -10.7969   19.6200 C   0  0  0  0  0  0  0  0  0  0  0  0
    6.1916  -11.7307   19.6998 C   0  0  0  0  0  0  0  0  0  0  0  0
    5.4733  -12.3599   18.2730 Cl  0  0  0  0  0  0  0  0  0  0  0  0
    5.7396  -12.1345   20.9671 C   0  0  0  0  0  0  0  0  0  0  0  0
    4.7341  -12.9931   21.4143 N   0  0  0  0  0  0  0  0  0  0  0  0
   -0.9472  -14.1968   24.7212 C   0  0  0  0  0  0  0  0  0  0  0  0
   -1.4746  -14.9590   23.7071 C   0  0  0  0  0  0  0  0  0  0  0  0
   -2.8303  -15.3418   23.9085 N   0  0  0  0  0  0  0  0  0  0  0  0
   -2.6523  -15.8169   25.0570 C   0  0  0  0  0  0  0  0  0  0  0  0
   -2.5640  -17.2272   25.6681 C   0  0  0  0  0  0  0  0  0  0  0  0
   -2.3389  -17.5603   26.9490 C   0  0  0  0  0  0  0  0  0  0  0  0
   -2.6946  -16.4333   27.7503 C   0  0  0  0  0  0  0  0  0  0  0  0
   -2.1547  -15.2378   27.4109 C   0  0  0  0  0  0  0  0  0  0  0  0
   -2.1553  -14.7638   25.8248 N   0  0  0  0  0  0  0  0  0  0  0  0
    3.3555  -14.6454   23.1594 H   0  0  0  0  0  0  0  0  0  0  0  0
    3.9657  -13.9693   24.6701 H   0  0  0  0  0  0  0  0  0  0  0  0
    7.8093  -10.3247   22.9509 H   0  0  0  0  0  0  0  0  0  0  0  0
    8.6286   -9.5638   20.7141 H   0  0  0  0  0  0  0  0  0  0  0  0
    7.6137  -10.4892   18.6476 H   0  0  0  0  0  0  0  0  0  0  0  0
    4.0932  -13.4965   20.8184 H   0  0  0  0  0  0  0  0  0  0  0  0
   -1.0770  -14.8637   22.6904 H   0  0  0  0  0  0  0  0  0  0  0  0
   -3.4642  -16.8271   25.9652 H   0  0  0  0  0  0  0  0  0  0  0  0
   -2.0146  -18.5298   27.2886 H   0  0  0  0  0  0  0  0  0  0  0  0
   -3.3716  -16.5109   28.5986 H   0  0  0  0  0  0  0  0  0  0  0  0
   -2.0620  -14.5489   28.2091 H   0  0  0  0  0  0  0  0  0  0  0  0
  1  2  2  0
  2  3  1  0
  3  4  1  0
  4  5  1  0
  5  6  2  0
  6  7  1  0
  7  8  2  0
  8  9  1  0
  9 10  2  0
 10 11  1  0
 11 12  1  0
 11 13  2  0
 13 14  1  0
  2 15  1  0
 15 16  2  0
 16 17  1  0
 17 18  2  0
 18 19  1  0
 19 20  2  0
 20 21  1  0
 21 22  2  0
 22 23  1  0
 14  5  1  0
 23 15  1  0
 13  7  1  0
 23 18  1  0
  4 24  1  0
  4 25  1  0
  8 26  1  0
  9 27  1  0
 10 28  1  0
 14 29  1  0
 16 30  1  0
 19 31  1  0
 20 32  1  0
 21 33  1  0
 22 34  1  0
M  END
>  <Energy>  (136) 
386.43878385943333

>  <compound_id>  (136) 
54848

>  <target_id>  (136) 
1

>  <reference_id>  (136) 
103

>  <inspiration_ids>  (136) 
[94, 103]

>  <energy_score>  (136) 
352.36434800581833

>  <distance_score>  (136) 
15.006492207102372

>  <path>  (136) 
/opt/xchem-fragalysis-2/maxwin/BulkDock/SCRATCH/511025/C54848-P103/C54848-P103.minimised.mol

>  <scratch_subdir>  (136) 
/opt/xchem-fragalysis-2/maxwin/BulkDock/SCRATCH/511025/C54848-P103

>  <fragmenstein_runtime>  (136) 
15.323978900909424

>  <fragmenstein_outcome>  (136) 
too moved

>  <fragmenstein_mode>  (136) 
expansion

>  <fragmenstein_error>  (136) 


$$$$
C54850-P94
     RDKit          3D

 38 41  0  0  0  0  0  0  0  0999 V2000
    3.0595  -17.6388   30.5151 C   0  0  0  0  0  0  0  0  0  0  0  0
    2.9739  -18.0935   29.0842 C   0  0  0  0  0  0  0  0  0  0  0  0
    3.8614  -17.5613   28.1069 C   0  0  0  0  0  0  0  0  0  0  0  0
    3.8847  -17.9529   26.7565 C   0  0  0  0  0  0  0  0  0  0  0  0
    4.7052  -17.2557   25.7563 N   0  0  0  0  0  0  0  0  0  0  0  0
    5.4628  -15.9222   25.8347 C   0  0  0  0  0  0  0  0  0  0  0  0
    5.6296  -15.1706   26.7640 O   0  0  0  0  0  0  0  0  0  0  0  0
    6.0129  -15.4936   24.3759 C   0  0  0  0  0  0  0  0  0  0  0  0
    6.5715  -14.0337   24.0037 C   0  0  0  0  0  0  0  0  0  0  0  0
    7.6742  -13.3045   24.4507 C   0  0  0  0  0  0  0  0  0  0  0  0
    7.8716  -12.2380   23.5742 N   0  0  0  0  0  0  0  0  0  0  0  0
    8.8712  -11.2525   23.5395 C   0  0  0  0  0  0  0  0  0  0  0  0
    8.8742  -10.3342   22.5531 C   0  0  0  0  0  0  0  0  0  0  0  0
    7.8253  -10.3823   21.5454 C   0  0  0  0  0  0  0  0  0  0  0  0
    6.8636  -11.3288   21.5848 C   0  0  0  0  0  0  0  0  0  0  0  0
    6.8645  -12.3209   22.6217 C   0  0  0  0  0  0  0  0  0  0  0  0
    6.0919  -13.3726   22.8519 N   0  0  0  0  0  0  0  0  0  0  0  0
    2.9185  -18.9923   26.4858 C   0  0  0  0  0  0  0  0  0  0  0  0
    2.5714  -19.7123   25.3597 N   0  0  0  0  0  0  0  0  0  0  0  0
    1.4987  -20.5230   25.6345 C   0  0  0  0  0  0  0  0  0  0  0  0
    1.1094  -20.4061   26.8760 N   0  0  0  0  0  0  0  0  0  0  0  0
    1.9833  -19.4908   27.4218 C   0  0  0  0  0  0  0  0  0  0  0  0
    2.0012  -19.0358   28.7379 C   0  0  0  0  0  0  0  0  0  0  0  0
    3.1245  -18.5049   31.1822 H   0  0  0  0  0  0  0  0  0  0  0  0
    3.9486  -17.0250   30.6905 H   0  0  0  0  0  0  0  0  0  0  0  0
    2.1744  -17.0526   30.7774 H   0  0  0  0  0  0  0  0  0  0  0  0
    4.5786  -16.8036   28.4246 H   0  0  0  0  0  0  0  0  0  0  0  0
    4.6967  -17.5798   24.7982 H   0  0  0  0  0  0  0  0  0  0  0  0
    5.1960  -15.6838   23.6678 H   0  0  0  0  0  0  0  0  0  0  0  0
    6.8259  -16.1928   24.1425 H   0  0  0  0  0  0  0  0  0  0  0  0
    8.3635  -13.4847   25.2624 H   0  0  0  0  0  0  0  0  0  0  0  0
    9.6178  -11.2841   24.3225 H   0  0  0  0  0  0  0  0  0  0  0  0
    9.6341   -9.5629   22.4897 H   0  0  0  0  0  0  0  0  0  0  0  0
    7.8351   -9.6354   20.7584 H   0  0  0  0  0  0  0  0  0  0  0  0
    6.0771  -11.3766   20.8397 H   0  0  0  0  0  0  0  0  0  0  0  0
    3.0345  -19.6508   24.4662 H   0  0  0  0  0  0  0  0  0  0  0  0
    1.0621  -21.1720   24.8870 H   0  0  0  0  0  0  0  0  0  0  0  0
    1.2946  -19.4256   29.4621 H   0  0  0  0  0  0  0  0  0  0  0  0
  1  2  1  0
  2  3  2  0
  3  4  1  0
  4  5  1  0
  5  6  1  0
  6  7  2  0
  6  8  1  0
  8  9  1  0
  9 10  2  0
 10 11  1  0
 11 12  1  0
 12 13  2  0
 13 14  1  0
 14 15  2  0
 15 16  1  0
 16 17  2  0
  4 18  2  0
 18 19  1  0
 19 20  1  0
 20 21  2  0
 21 22  1  0
 22 23  2  0
 23  2  1  0
 17  9  1  0
 22 18  1  0
 16 11  1  0
  1 24  1  0
  1 25  1  0
  1 26  1  0
  3 27  1  0
  5 28  1  0
  8 29  1  0
  8 30  1  0
 10 31  1  0
 12 32  1  0
 13 33  1  0
 14 34  1  0
 15 35  1  0
 19 36  1  0
 20 37  1  0
 23 38  1  0
M  END
>  <Energy>  (137) 
69.41612163330106

>  <compound_id>  (137) 
54850

>  <target_id>  (137) 
1

>  <reference_id>  (137) 
94

>  <inspiration_ids>  (137) 
[94, 103]

>  <energy_score>  (137) 
-9.796938393928542

>  <distance_score>  (137) 
15.932801221185054

>  <path>  (137) 
/opt/xchem-fragalysis-2/maxwin/BulkDock/SCRATCH/511025/C54850-P94/C54850-P94.minimised.mol

>  <scratch_subdir>  (137) 
/opt/xchem-fragalysis-2/maxwin/BulkDock/SCRATCH/511025/C54850-P94

>  <fragmenstein_runtime>  (137) 
32.23237156867981

>  <fragmenstein_outcome>  (137) 
too moved

>  <fragmenstein_mode>  (137) 
expansion

>  <fragmenstein_error>  (137) 


$$$$
C54850-P103
     RDKit          3D

 38 41  0  0  0  0  0  0  0  0999 V2000
   -4.3787  -17.4259   18.7249 C   0  0  0  0  0  0  0  0  0  0  0  0
   -3.2020  -18.0737   19.4005 C   0  0  0  0  0  0  0  0  0  0  0  0
   -1.8872  -17.6451   19.0640 C   0  0  0  0  0  0  0  0  0  0  0  0
   -0.7134  -18.1385   19.6672 C   0  0  0  0  0  0  0  0  0  0  0  0
    0.6046  -17.5688   19.3723 N   0  0  0  0  0  0  0  0  0  0  0  0
    1.0356  -16.5376   18.3325 C   0  0  0  0  0  0  0  0  0  0  0  0
    0.4060  -16.0040   17.4504 O   0  0  0  0  0  0  0  0  0  0  0  0
    2.6000  -16.1218   18.5123 C   0  0  0  0  0  0  0  0  0  0  0  0
    3.2494  -14.7159   18.0806 C   0  0  0  0  0  0  0  0  0  0  0  0
    2.7611  -13.5048   17.5979 C   0  0  0  0  0  0  0  0  0  0  0  0
    3.8358  -12.6294   17.4499 N   0  0  0  0  0  0  0  0  0  0  0  0
    3.8843  -11.3007   16.9999 C   0  0  0  0  0  0  0  0  0  0  0  0
    5.0689  -10.6658   16.9026 C   0  0  0  0  0  0  0  0  0  0  0  0
    6.2791  -11.3832   17.2689 C   0  0  0  0  0  0  0  0  0  0  0  0
    6.2259  -12.6531   17.7204 C   0  0  0  0  0  0  0  0  0  0  0  0
    4.9692  -13.3337   17.8289 C   0  0  0  0  0  0  0  0  0  0  0  0
    4.6501  -14.5595   18.2163 N   0  0  0  0  0  0  0  0  0  0  0  0
   -1.0031  -19.1629   20.6489 C   0  0  0  0  0  0  0  0  0  0  0  0
   -0.2242  -19.9919   21.4355 N   0  0  0  0  0  0  0  0  0  0  0  0
   -1.0176  -20.7162   22.2881 C   0  0  0  0  0  0  0  0  0  0  0  0
   -2.2851  -20.4693   22.0870 N   0  0  0  0  0  0  0  0  0  0  0  0
   -2.2980  -19.5724   21.0348 C   0  0  0  0  0  0  0  0  0  0  0  0
   -3.4173  -19.0253   20.4056 C   0  0  0  0  0  0  0  0  0  0  0  0
   -4.6510  -16.5063   19.2522 H   0  0  0  0  0  0  0  0  0  0  0  0
   -4.1443  -17.1840   17.6830 H   0  0  0  0  0  0  0  0  0  0  0  0
   -5.2437  -18.0974   18.7154 H   0  0  0  0  0  0  0  0  0  0  0  0
   -1.7882  -16.8578   18.3150 H   0  0  0  0  0  0  0  0  0  0  0  0
    1.3668  -17.7366   20.0106 H   0  0  0  0  0  0  0  0  0  0  0  0
    2.8544  -16.2254   19.5683 H   0  0  0  0  0  0  0  0  0  0  0  0
    3.1637  -16.8876   17.9634 H   0  0  0  0  0  0  0  0  0  0  0  0
    1.7563  -13.1910   17.3538 H   0  0  0  0  0  0  0  0  0  0  0  0
    2.9410  -10.8415   16.7333 H   0  0  0  0  0  0  0  0  0  0  0  0
    5.1414   -9.6467   16.5406 H   0  0  0  0  0  0  0  0  0  0  0  0
    7.2362  -10.8855   17.1544 H   0  0  0  0  0  0  0  0  0  0  0  0
    7.1236  -13.1983   17.9877 H   0  0  0  0  0  0  0  0  0  0  0  0
    0.7815  -20.0449   21.3912 H   0  0  0  0  0  0  0  0  0  0  0  0
   -0.6077  -21.4087   23.0112 H   0  0  0  0  0  0  0  0  0  0  0  0
   -4.4147  -19.3264   20.7063 H   0  0  0  0  0  0  0  0  0  0  0  0
  1  2  1  0
  2  3  2  0
  3  4  1  0
  4  5  1  0
  5  6  1  0
  6  7  2  0
  6  8  1  0
  8  9  1  0
  9 10  2  0
 10 11  1  0
 11 12  1  0
 12 13  2  0
 13 14  1  0
 14 15  2  0
 15 16  1  0
 16 17  2  0
  4 18  2  0
 18 19  1  0
 19 20  1  0
 20 21  2  0
 21 22  1  0
 22 23  2  0
 23  2  1  0
 17  9  1  0
 22 18  1  0
 16 11  1  0
  1 24  1  0
  1 25  1  0
  1 26  1  0
  3 27  1  0
  5 28  1  0
  8 29  1  0
  8 30  1  0
 10 31  1  0
 12 32  1  0
 13 33  1  0
 14 34  1  0
 15 35  1  0
 19 36  1  0
 20 37  1  0
 23 38  1  0
M  END
>  <Energy>  (138) 
68.756967853873419

>  <compound_id>  (138) 
54850

>  <target_id>  (138) 
1

>  <reference_id>  (138) 
103

>  <inspiration_ids>  (138) 
[94, 103]

>  <energy_score>  (138) 
-10.45609217335641

>  <distance_score>  (138) 
16.170441566426934

>  <path>  (138) 
/opt/xchem-fragalysis-2/maxwin/BulkDock/SCRATCH/511025/C54850-P103/C54850-P103.minimised.mol

>  <scratch_subdir>  (138) 
/opt/xchem-fragalysis-2/maxwin/BulkDock/SCRATCH/511025/C54850-P103

>  <fragmenstein_runtime>  (138) 
26.56302499771118

>  <fragmenstein_outcome>  (138) 
too moved

>  <fragmenstein_mode>  (138) 
expansion

>  <fragmenstein_error>  (138) 


$$$$
C54856-P94
     RDKit          3D

 38 41  0  0  0  0  0  0  0  0999 V2000
    4.9410  -15.8202   27.0096 O   0  0  0  0  0  0  0  0  0  0  0  0
    4.5360  -15.3281   28.0310 C   0  0  0  0  0  0  0  0  0  0  0  0
    5.2435  -13.9673   28.5509 C   0  0  0  0  0  0  0  0  0  0  0  0
    6.1273  -13.0246   27.6042 C   0  0  0  0  0  0  0  0  0  0  0  0
    6.8985  -13.2766   26.4651 C   0  0  0  0  0  0  0  0  0  0  0  0
    7.4246  -12.0703   26.0602 N   0  0  0  0  0  0  0  0  0  0  0  0
    8.1962  -11.5902   25.0211 C   0  0  0  0  0  0  0  0  0  0  0  0
    8.4077  -10.2615   25.1139 C   0  0  0  0  0  0  0  0  0  0  0  0
    7.6524   -9.5514   26.5548 S   0  0  0  0  0  0  0  0  0  0  0  0
    7.0381  -11.1383   26.9740 C   0  0  0  0  0  0  0  0  0  0  0  0
    6.2577  -11.6306   27.9099 N   0  0  0  0  0  0  0  0  0  0  0  0
    3.4458  -15.7854   28.9760 N   0  0  0  0  0  0  0  0  0  0  0  0
    2.5879  -17.0688   28.9810 C   0  0  0  0  0  0  0  0  0  0  0  0
    0.9879  -16.9802   29.3175 C   0  0  0  0  0  0  0  0  0  0  0  0
    0.1588  -18.1791   29.5787 N   0  0  0  0  0  0  0  0  0  0  0  0
    0.6043  -19.4252   29.9433 C   0  0  0  0  0  0  0  0  0  0  0  0
   -0.3721  -20.2612   30.2301 N   0  0  0  0  0  0  0  0  0  0  0  0
   -1.5276  -19.5458   30.0638 C   0  0  0  0  0  0  0  0  0  0  0  0
   -2.8585  -19.9457   30.2872 C   0  0  0  0  0  0  0  0  0  0  0  0
   -3.8838  -19.0200   30.0791 C   0  0  0  0  0  0  0  0  0  0  0  0
   -3.5952  -17.7385   29.6166 C   0  0  0  0  0  0  0  0  0  0  0  0
   -2.2719  -17.3237   29.3858 C   0  0  0  0  0  0  0  0  0  0  0  0
   -1.2398  -18.2443   29.6338 C   0  0  0  0  0  0  0  0  0  0  0  0
    4.4555  -13.3311   28.9716 H   0  0  0  0  0  0  0  0  0  0  0  0
    5.9038  -14.2678   29.3742 H   0  0  0  0  0  0  0  0  0  0  0  0
    7.0800  -14.1955   25.9289 H   0  0  0  0  0  0  0  0  0  0  0  0
    8.5459  -12.2528   24.2456 H   0  0  0  0  0  0  0  0  0  0  0  0
    8.9650   -9.6567   24.4116 H   0  0  0  0  0  0  0  0  0  0  0  0
    3.4256  -15.1732   29.7842 H   0  0  0  0  0  0  0  0  0  0  0  0
    2.7236  -17.5501   28.0072 H   0  0  0  0  0  0  0  0  0  0  0  0
    3.0589  -17.7074   29.7356 H   0  0  0  0  0  0  0  0  0  0  0  0
    0.8670  -16.3506   30.2068 H   0  0  0  0  0  0  0  0  0  0  0  0
    0.5109  -16.4777   28.4696 H   0  0  0  0  0  0  0  0  0  0  0  0
    1.6557  -19.6751   29.9943 H   0  0  0  0  0  0  0  0  0  0  0  0
   -3.0723  -20.9428   30.6534 H   0  0  0  0  0  0  0  0  0  0  0  0
   -4.9106  -19.2857   30.3112 H   0  0  0  0  0  0  0  0  0  0  0  0
   -4.4102  -17.0342   29.4633 H   0  0  0  0  0  0  0  0  0  0  0  0
   -2.0616  -16.3133   29.0509 H   0  0  0  0  0  0  0  0  0  0  0  0
  1  2  2  0
  2  3  1  0
  3  4  1  0
  4  5  2  0
  5  6  1  0
  6  7  1  0
  7  8  2  0
  8  9  1  0
  9 10  1  0
 10 11  2  0
  2 12  1  0
 12 13  1  0
 13 14  1  0
 14 15  1  0
 15 16  1  0
 16 17  2  0
 17 18  1  0
 18 19  2  0
 19 20  1  0
 20 21  2  0
 21 22  1  0
 22 23  2  0
 11  4  1  0
 23 15  1  0
 10  6  1  0
 23 18  1  0
  3 24  1  0
  3 25  1  0
  5 26  1  0
  7 27  1  0
  8 28  1  0
 12 29  1  0
 13 30  1  0
 13 31  1  0
 14 32  1  0
 14 33  1  0
 16 34  1  0
 19 35  1  0
 20 36  1  0
 21 37  1  0
 22 38  1  0
M  END
>  <Energy>  (139) 
82.708117798501092

>  <compound_id>  (139) 
54856

>  <target_id>  (139) 
1

>  <reference_id>  (139) 
94

>  <inspiration_ids>  (139) 
[94, 103]

>  <energy_score>  (139) 
-6.387133480617877

>  <distance_score>  (139) 
15.301717906073712

>  <path>  (139) 
/opt/xchem-fragalysis-2/maxwin/BulkDock/SCRATCH/511025/C54856-P94/C54856-P94.minimised.mol

>  <scratch_subdir>  (139) 
/opt/xchem-fragalysis-2/maxwin/BulkDock/SCRATCH/511025/C54856-P94

>  <fragmenstein_runtime>  (139) 
20.701204538345337

>  <fragmenstein_outcome>  (139) 
too moved

>  <fragmenstein_mode>  (139) 
expansion

>  <fragmenstein_error>  (139) 


$$$$
C54856-P103
     RDKit          3D

 38 41  0  0  0  0  0  0  0  0999 V2000
    5.0143  -15.8140   26.4867 O   0  0  0  0  0  0  0  0  0  0  0  0
    4.6705  -15.3399   27.5374 C   0  0  0  0  0  0  0  0  0  0  0  0
    5.4867  -14.0632   28.0992 C   0  0  0  0  0  0  0  0  0  0  0  0
    6.3076  -12.9751   27.2301 C   0  0  0  0  0  0  0  0  0  0  0  0
    6.6089  -11.6674   27.6695 C   0  0  0  0  0  0  0  0  0  0  0  0
    7.3171  -11.0576   26.6672 N   0  0  0  0  0  0  0  0  0  0  0  0
    7.8525   -9.8085   26.4309 C   0  0  0  0  0  0  0  0  0  0  0  0
    8.4357   -9.7317   25.2202 C   0  0  0  0  0  0  0  0  0  0  0  0
    8.3491  -11.2709   24.3356 S   0  0  0  0  0  0  0  0  0  0  0  0
    7.4699  -11.9763   25.6786 C   0  0  0  0  0  0  0  0  0  0  0  0
    6.9087  -13.1351   25.9655 N   0  0  0  0  0  0  0  0  0  0  0  0
    3.6139  -15.8052   28.5314 N   0  0  0  0  0  0  0  0  0  0  0  0
    2.7295  -17.0832   28.5487 C   0  0  0  0  0  0  0  0  0  0  0  0
    1.1403  -17.0020   28.9609 C   0  0  0  0  0  0  0  0  0  0  0  0
    0.3194  -18.2081   29.2275 N   0  0  0  0  0  0  0  0  0  0  0  0
    0.7722  -19.4056   29.7264 C   0  0  0  0  0  0  0  0  0  0  0  0
   -0.1964  -20.2559   29.9959 N   0  0  0  0  0  0  0  0  0  0  0  0
   -1.3569  -19.6001   29.6853 C   0  0  0  0  0  0  0  0  0  0  0  0
   -2.6871  -20.0426   29.8225 C   0  0  0  0  0  0  0  0  0  0  0  0
   -3.7248  -19.1782   29.4682 C   0  0  0  0  0  0  0  0  0  0  0  0
   -3.4444  -17.9110   28.9624 C   0  0  0  0  0  0  0  0  0  0  0  0
   -2.1214  -17.4549   28.8150 C   0  0  0  0  0  0  0  0  0  0  0  0
   -1.0785  -18.3180   29.1929 C   0  0  0  0  0  0  0  0  0  0  0  0
    6.2250  -14.4816   28.7968 H   0  0  0  0  0  0  0  0  0  0  0  0
    4.7762  -13.4775   28.6976 H   0  0  0  0  0  0  0  0  0  0  0  0
    6.3687  -11.1551   28.5885 H   0  0  0  0  0  0  0  0  0  0  0  0
    7.7687   -9.0203   27.1610 H   0  0  0  0  0  0  0  0  0  0  0  0
    8.9092   -8.8584   24.7928 H   0  0  0  0  0  0  0  0  0  0  0  0
    3.6444  -15.2140   29.3528 H   0  0  0  0  0  0  0  0  0  0  0  0
    3.2278  -17.7392   29.2704 H   0  0  0  0  0  0  0  0  0  0  0  0
    2.8226  -17.5529   27.5643 H   0  0  0  0  0  0  0  0  0  0  0  0
    0.6264  -16.4713   28.1536 H   0  0  0  0  0  0  0  0  0  0  0  0
    1.0638  -16.4031   29.8757 H   0  0  0  0  0  0  0  0  0  0  0  0
    1.8234  -19.6080   29.8837 H   0  0  0  0  0  0  0  0  0  0  0  0
   -2.8920  -21.0262   30.2293 H   0  0  0  0  0  0  0  0  0  0  0  0
   -4.7549  -19.4801   29.6186 H   0  0  0  0  0  0  0  0  0  0  0  0
   -4.2672  -17.2495   28.6992 H   0  0  0  0  0  0  0  0  0  0  0  0
   -1.9216  -16.4583   28.4347 H   0  0  0  0  0  0  0  0  0  0  0  0
  1  2  2  0
  2  3  1  0
  3  4  1  0
  4  5  2  0
  5  6  1  0
  6  7  1  0
  7  8  2  0
  8  9  1  0
  9 10  1  0
 10 11  2  0
  2 12  1  0
 12 13  1  0
 13 14  1  0
 14 15  1  0
 15 16  1  0
 16 17  2  0
 17 18  1  0
 18 19  2  0
 19 20  1  0
 20 21  2  0
 21 22  1  0
 22 23  2  0
 11  4  1  0
 23 15  1  0
 10  6  1  0
 23 18  1  0
  3 24  1  0
  3 25  1  0
  5 26  1  0
  7 27  1  0
  8 28  1  0
 12 29  1  0
 13 30  1  0
 13 31  1  0
 14 32  1  0
 14 33  1  0
 16 34  1  0
 19 35  1  0
 20 36  1  0
 21 37  1  0
 22 38  1  0
M  END
>  <Energy>  (140) 
97.461961615186027

>  <compound_id>  (140) 
54856

>  <target_id>  (140) 
1

>  <reference_id>  (140) 
103

>  <inspiration_ids>  (140) 
[94, 103]

>  <energy_score>  (140) 
8.366710336068195

>  <distance_score>  (140) 
15.217651735695817

>  <path>  (140) 
/opt/xchem-fragalysis-2/maxwin/BulkDock/SCRATCH/511025/C54856-P103/C54856-P103.minimised.mol

>  <scratch_subdir>  (140) 
/opt/xchem-fragalysis-2/maxwin/BulkDock/SCRATCH/511025/C54856-P103

>  <fragmenstein_runtime>  (140) 
16.79773235321045

>  <fragmenstein_outcome>  (140) 
too moved

>  <fragmenstein_mode>  (140) 
expansion

>  <fragmenstein_error>  (140) 


$$$$
C54857-P94
     RDKit          3D

 34 37  0  0  0  0  0  0  0  0999 V2000
   -5.5009  -17.5199   32.9105 C   0  0  0  0  0  0  0  0  0  0  0  0
   -4.4943  -16.4734   32.8445 N   0  0  0  0  0  0  0  0  0  0  0  0
   -3.2521  -16.5097   33.3971 C   0  0  0  0  0  0  0  0  0  0  0  0
   -2.5617  -15.4170   33.1306 N   0  0  0  0  0  0  0  0  0  0  0  0
   -3.3669  -14.5962   32.3496 C   0  0  0  0  0  0  0  0  0  0  0  0
   -3.1355  -13.3010   31.7341 C   0  0  0  0  0  0  0  0  0  0  0  0
   -1.8815  -12.3567   31.9235 C   0  0  0  0  0  0  0  0  0  0  0  0
   -1.0923  -12.5414   32.8433 O   0  0  0  0  0  0  0  0  0  0  0  0
   -1.7219  -11.2303   31.0485 O   0  0  0  0  0  0  0  0  0  0  0  0
   -0.6129  -10.2096   31.3073 C   0  0  0  0  0  0  0  0  0  0  0  0
    0.2356   -9.6381   30.0784 C   0  0  0  0  0  0  0  0  0  0  0  0
    1.3866  -10.1917   29.4926 C   0  0  0  0  0  0  0  0  0  0  0  0
    2.0270   -9.3787   28.5862 N   0  0  0  0  0  0  0  0  0  0  0  0
    1.3448   -8.2764   28.6606 C   0  0  0  0  0  0  0  0  0  0  0  0
    1.5313   -6.6962   27.9355 S   0  0  0  0  0  0  0  0  0  0  0  0
    0.1585   -6.1584   28.8788 C   0  0  0  0  0  0  0  0  0  0  0  0
   -0.3609   -7.1230   29.6653 C   0  0  0  0  0  0  0  0  0  0  0  0
    0.2912   -8.3373   29.5396 N   0  0  0  0  0  0  0  0  0  0  0  0
   -4.2163  -12.8772   30.9490 C   0  0  0  0  0  0  0  0  0  0  0  0
   -5.4659  -13.5233   30.8645 C   0  0  0  0  0  0  0  0  0  0  0  0
   -5.6915  -14.7396   31.4838 C   0  0  0  0  0  0  0  0  0  0  0  0
   -4.6107  -15.2671   32.1852 C   0  0  0  0  0  0  0  0  0  0  0  0
   -6.3909  -17.1094   33.3932 H   0  0  0  0  0  0  0  0  0  0  0  0
   -5.1095  -18.3587   33.4910 H   0  0  0  0  0  0  0  0  0  0  0  0
   -5.7184  -17.8380   31.8885 H   0  0  0  0  0  0  0  0  0  0  0  0
   -2.8905  -17.3471   33.9796 H   0  0  0  0  0  0  0  0  0  0  0  0
    0.0994  -10.6440   32.0164 H   0  0  0  0  0  0  0  0  0  0  0  0
   -1.1130   -9.3622   31.7878 H   0  0  0  0  0  0  0  0  0  0  0  0
    1.8191  -11.1456   29.7379 H   0  0  0  0  0  0  0  0  0  0  0  0
   -0.1965   -5.1369   28.8300 H   0  0  0  0  0  0  0  0  0  0  0  0
   -1.1844   -7.0063   30.3514 H   0  0  0  0  0  0  0  0  0  0  0  0
   -4.0662  -12.0110   30.3355 H   0  0  0  0  0  0  0  0  0  0  0  0
   -6.2470  -13.0780   30.2492 H   0  0  0  0  0  0  0  0  0  0  0  0
   -6.6359  -15.2622   31.3858 H   0  0  0  0  0  0  0  0  0  0  0  0
  1  2  1  0
  2  3  1  0
  3  4  2  0
  4  5  1  0
  5  6  2  0
  6  7  1  0
  7  8  2  0
  7  9  1  0
  9 10  1  0
 10 11  1  0
 11 12  2  0
 12 13  1  0
 13 14  2  0
 14 15  1  0
 15 16  1  0
 16 17  2  0
 17 18  1  0
  6 19  1  0
 19 20  2  0
 20 21  1  0
 21 22  2  0
 22  2  1  0
 22  5  1  0
 18 11  1  0
 18 14  1  0
  1 23  1  0
  1 24  1  0
  1 25  1  0
  3 26  1  0
 10 27  1  0
 10 28  1  0
 12 29  1  0
 16 30  1  0
 17 31  1  0
 19 32  1  0
 20 33  1  0
 21 34  1  0
M  END
>  <Energy>  (141) 
80.630171640969522

>  <compound_id>  (141) 
54857

>  <target_id>  (141) 
1

>  <reference_id>  (141) 
94

>  <inspiration_ids>  (141) 
[94, 103]

>  <energy_score>  (141) 
-3.9289119506020143

>  <distance_score>  (141) 
16.887196162552787

>  <path>  (141) 
/opt/xchem-fragalysis-2/maxwin/BulkDock/SCRATCH/511025/C54857-P94/C54857-P94.minimised.mol

>  <scratch_subdir>  (141) 
/opt/xchem-fragalysis-2/maxwin/BulkDock/SCRATCH/511025/C54857-P94

>  <fragmenstein_runtime>  (141) 
14.649752616882324

>  <fragmenstein_outcome>  (141) 
too moved

>  <fragmenstein_mode>  (141) 
expansion

>  <fragmenstein_error>  (141) 


$$$$
C54857-P103
     RDKit          3D

 34 37  0  0  0  0  0  0  0  0999 V2000
   -1.2337  -21.8755   26.5562 C   0  0  0  0  0  0  0  0  0  0  0  0
   -0.4291  -20.6717   26.5924 N   0  0  0  0  0  0  0  0  0  0  0  0
   -0.8478  -19.5439   27.2168 C   0  0  0  0  0  0  0  0  0  0  0  0
    0.0739  -18.6139   27.1684 N   0  0  0  0  0  0  0  0  0  0  0  0
    1.2049  -19.1302   26.4814 C   0  0  0  0  0  0  0  0  0  0  0  0
    2.6121  -18.4346   26.1659 C   0  0  0  0  0  0  0  0  0  0  0  0
    3.1031  -16.8201   26.9333 C   0  0  0  0  0  0  0  0  0  0  0  0
    2.4174  -16.5825   27.9421 O   0  0  0  0  0  0  0  0  0  0  0  0
    4.0543  -15.5545   26.6161 O   0  0  0  0  0  0  0  0  0  0  0  0
    4.8770  -14.7068   25.3287 C   0  0  0  0  0  0  0  0  0  0  0  0
    6.2739  -13.5335   25.6399 C   0  0  0  0  0  0  0  0  0  0  0  0
    6.4193  -12.4549   26.5406 C   0  0  0  0  0  0  0  0  0  0  0  0
    7.3422  -11.4977   26.1408 N   0  0  0  0  0  0  0  0  0  0  0  0
    7.8730  -12.0326   25.0858 C   0  0  0  0  0  0  0  0  0  0  0  0
    9.1110  -11.5128   23.9767 S   0  0  0  0  0  0  0  0  0  0  0  0
    9.0997  -13.1351   23.2911 C   0  0  0  0  0  0  0  0  0  0  0  0
    8.1837  -13.9460   23.8593 C   0  0  0  0  0  0  0  0  0  0  0  0
    7.4355  -13.3125   24.8403 N   0  0  0  0  0  0  0  0  0  0  0  0
    3.2619  -19.1999   25.1869 C   0  0  0  0  0  0  0  0  0  0  0  0
    2.8124  -20.4918   24.7661 C   0  0  0  0  0  0  0  0  0  0  0  0
    1.6382  -21.1367   25.1995 C   0  0  0  0  0  0  0  0  0  0  0  0
    0.8151  -20.4087   26.0355 C   0  0  0  0  0  0  0  0  0  0  0  0
   -0.8485  -22.5443   25.7837 H   0  0  0  0  0  0  0  0  0  0  0  0
   -1.1709  -22.3543   27.5364 H   0  0  0  0  0  0  0  0  0  0  0  0
   -2.2665  -21.6029   26.3236 H   0  0  0  0  0  0  0  0  0  0  0  0
   -1.8136  -19.4579   27.6955 H   0  0  0  0  0  0  0  0  0  0  0  0
    5.2293  -15.4364   24.5892 H   0  0  0  0  0  0  0  0  0  0  0  0
    4.0352  -14.1325   24.9553 H   0  0  0  0  0  0  0  0  0  0  0  0
    5.8253  -12.2684   27.4266 H   0  0  0  0  0  0  0  0  0  0  0  0
    9.7793  -13.4190   22.4984 H   0  0  0  0  0  0  0  0  0  0  0  0
    7.9869  -14.9759   23.6048 H   0  0  0  0  0  0  0  0  0  0  0  0
    4.1526  -18.8276   24.6892 H   0  0  0  0  0  0  0  0  0  0  0  0
    3.4220  -21.0103   24.0224 H   0  0  0  0  0  0  0  0  0  0  0  0
    1.3745  -22.1183   24.8228 H   0  0  0  0  0  0  0  0  0  0  0  0
  1  2  1  0
  2  3  1  0
  3  4  2  0
  4  5  1  0
  5  6  2  0
  6  7  1  0
  7  8  2  0
  7  9  1  0
  9 10  1  0
 10 11  1  0
 11 12  2  0
 12 13  1  0
 13 14  2  0
 14 15  1  0
 15 16  1  0
 16 17  2  0
 17 18  1  0
  6 19  1  0
 19 20  2  0
 20 21  1  0
 21 22  2  0
 22  2  1  0
 22  5  1  0
 18 11  1  0
 18 14  1  0
  1 23  1  0
  1 24  1  0
  1 25  1  0
  3 26  1  0
 10 27  1  0
 10 28  1  0
 12 29  1  0
 16 30  1  0
 17 31  1  0
 19 32  1  0
 20 33  1  0
 21 34  1  0
M  END
>  <Energy>  (142) 
250.18439694779605

>  <compound_id>  (142) 
54857

>  <target_id>  (142) 
1

>  <reference_id>  (142) 
103

>  <inspiration_ids>  (142) 
[94, 103]

>  <energy_score>  (142) 
165.6253133562265

>  <distance_score>  (142) 
15.869557791442087

>  <path>  (142) 
/opt/xchem-fragalysis-2/maxwin/BulkDock/SCRATCH/511025/C54857-P103/C54857-P103.minimised.mol

>  <scratch_subdir>  (142) 
/opt/xchem-fragalysis-2/maxwin/BulkDock/SCRATCH/511025/C54857-P103

>  <fragmenstein_runtime>  (142) 
11.615193367004395

>  <fragmenstein_outcome>  (142) 
too moved

>  <fragmenstein_mode>  (142) 
expansion

>  <fragmenstein_error>  (142) 


$$$$
C54858-P94
     RDKit          3D

 35 39  0  0  0  0  0  0  0  0999 V2000
   -1.5705   -7.6220   21.0966 C   0  0  0  0  0  0  0  0  0  0  0  0
   -1.6116   -8.3497   19.8431 C   0  0  0  0  0  0  0  0  0  0  0  0
   -2.3381   -9.4843   19.7720 C   0  0  0  0  0  0  0  0  0  0  0  0
   -3.0541   -9.9375   20.8892 N   0  0  0  0  0  0  0  0  0  0  0  0
   -3.8129  -11.1043   21.0944 C   0  0  0  0  0  0  0  0  0  0  0  0
   -4.3456  -11.0741   22.3860 C   0  0  0  0  0  0  0  0  0  0  0  0
   -5.1156  -12.1645   23.1877 C   0  0  0  0  0  0  0  0  0  0  0  0
   -6.0612  -11.7848   24.1667 C   0  0  0  0  0  0  0  0  0  0  0  0
   -6.7645  -12.6971   25.0219 C   0  0  0  0  0  0  0  0  0  0  0  0
   -6.4747  -14.0633   24.9181 C   0  0  0  0  0  0  0  0  0  0  0  0
   -5.5456  -14.5200   23.9793 C   0  0  0  0  0  0  0  0  0  0  0  0
   -4.8871  -13.5712   23.1055 C   0  0  0  0  0  0  0  0  0  0  0  0
   -5.4156  -15.9001   24.0820 N   0  0  0  0  0  0  0  0  0  0  0  0
   -6.2275  -16.2707   25.0537 C   0  0  0  0  0  0  0  0  0  0  0  0
   -6.9015  -15.2042   25.5691 N   0  0  0  0  0  0  0  0  0  0  0  0
   -7.9952  -15.2928   26.5751 C   0  0  0  0  0  0  0  0  0  0  0  0
   -8.0983  -16.3673   27.6401 C   0  0  0  0  0  0  0  0  0  0  0  0
   -7.7615  -14.9564   28.0267 C   0  0  0  0  0  0  0  0  0  0  0  0
   -3.8329   -9.8835   22.9821 N   0  0  0  0  0  0  0  0  0  0  0  0
   -3.0943   -9.2279   22.0828 C   0  0  0  0  0  0  0  0  0  0  0  0
   -2.2908   -8.0374   22.1599 C   0  0  0  0  0  0  0  0  0  0  0  0
   -0.9433   -6.7380   21.1558 H   0  0  0  0  0  0  0  0  0  0  0  0
   -1.0194   -7.9988   19.0048 H   0  0  0  0  0  0  0  0  0  0  0  0
   -2.3739  -10.0973   18.8810 H   0  0  0  0  0  0  0  0  0  0  0  0
   -3.8866  -11.8389   20.3062 H   0  0  0  0  0  0  0  0  0  0  0  0
   -6.2656  -10.7191   24.2938 H   0  0  0  0  0  0  0  0  0  0  0  0
   -7.4739  -12.3208   25.7532 H   0  0  0  0  0  0  0  0  0  0  0  0
   -4.1633  -13.9652   22.3983 H   0  0  0  0  0  0  0  0  0  0  0  0
   -6.3590  -17.2819   25.4068 H   0  0  0  0  0  0  0  0  0  0  0  0
   -8.9388  -14.9599   26.1488 H   0  0  0  0  0  0  0  0  0  0  0  0
   -7.3103  -17.1050   27.7420 H   0  0  0  0  0  0  0  0  0  0  0  0
   -9.0860  -16.7391   27.8872 H   0  0  0  0  0  0  0  0  0  0  0  0
   -8.5170  -14.3740   28.5422 H   0  0  0  0  0  0  0  0  0  0  0  0
   -6.7480  -14.7506   28.3552 H   0  0  0  0  0  0  0  0  0  0  0  0
   -2.2642   -7.4959   23.0988 H   0  0  0  0  0  0  0  0  0  0  0  0
  1  2  1  0
  2  3  2  0
  3  4  1  0
  4  5  1  0
  5  6  2  0
  6  7  1  0
  7  8  2  0
  8  9  1  0
  9 10  2  0
 10 11  1  0
 11 12  2  0
 11 13  1  0
 13 14  2  0
 14 15  1  0
 15 16  1  0
 16 17  1  0
 17 18  1  0
  6 19  1  0
 19 20  2  0
 20 21  1  0
 21  1  2  0
 20  4  1  0
 12  7  1  0
 18 16  1  0
 15 10  1  0
  1 22  1  0
  2 23  1  0
  3 24  1  0
  5 25  1  0
  8 26  1  0
  9 27  1  0
 12 28  1  0
 14 29  1  0
 16 30  1  0
 17 31  1  0
 17 32  1  0
 18 33  1  0
 18 34  1  0
 21 35  1  0
M  END
>  <Energy>  (143) 
70.669735314479851

>  <compound_id>  (143) 
54858

>  <target_id>  (143) 
1

>  <reference_id>  (143) 
94

>  <inspiration_ids>  (143) 
[94, 103]

>  <energy_score>  (143) 
-6.511762235552851

>  <distance_score>  (143) 
16.003723805598497

>  <path>  (143) 
/opt/xchem-fragalysis-2/maxwin/BulkDock/SCRATCH/511025/C54858-P94/C54858-P94.minimised.mol

>  <scratch_subdir>  (143) 
/opt/xchem-fragalysis-2/maxwin/BulkDock/SCRATCH/511025/C54858-P94

>  <fragmenstein_runtime>  (143) 
14.283530235290527

>  <fragmenstein_outcome>  (143) 
too moved

>  <fragmenstein_mode>  (143) 
expansion

>  <fragmenstein_error>  (143) 


$$$$
C54858-P103
     RDKit          3D

 35 39  0  0  0  0  0  0  0  0999 V2000
    1.7426   -8.3173   29.0782 C   0  0  0  0  0  0  0  0  0  0  0  0
    2.8652   -9.1690   29.4377 C   0  0  0  0  0  0  0  0  0  0  0  0
    2.7008  -10.5029   29.3727 C   0  0  0  0  0  0  0  0  0  0  0  0
    1.4729  -11.0355   28.9451 N   0  0  0  0  0  0  0  0  0  0  0  0
    1.0171  -12.3470   28.9275 C   0  0  0  0  0  0  0  0  0  0  0  0
   -0.3434  -12.3093   28.6308 C   0  0  0  0  0  0  0  0  0  0  0  0
   -1.3746  -13.4184   28.7786 C   0  0  0  0  0  0  0  0  0  0  0  0
   -2.7439  -13.1096   28.6277 C   0  0  0  0  0  0  0  0  0  0  0  0
   -3.7927  -14.0205   28.9044 C   0  0  0  0  0  0  0  0  0  0  0  0
   -3.4354  -15.2945   29.3548 C   0  0  0  0  0  0  0  0  0  0  0  0
   -2.1067  -15.6959   29.4619 C   0  0  0  0  0  0  0  0  0  0  0  0
   -1.0733  -14.7523   29.1686 C   0  0  0  0  0  0  0  0  0  0  0  0
   -2.0343  -17.0120   29.8949 N   0  0  0  0  0  0  0  0  0  0  0  0
   -3.2818  -17.3844   30.1064 C   0  0  0  0  0  0  0  0  0  0  0  0
   -4.1452  -16.3693   29.8235 N   0  0  0  0  0  0  0  0  0  0  0  0
   -5.5857  -16.3330   30.1177 C   0  0  0  0  0  0  0  0  0  0  0  0
   -6.2857  -17.3814   30.9219 C   0  0  0  0  0  0  0  0  0  0  0  0
   -6.5694  -17.2437   29.4474 C   0  0  0  0  0  0  0  0  0  0  0  0
   -0.6578  -10.9850   28.2752 N   0  0  0  0  0  0  0  0  0  0  0  0
    0.4057  -10.2450   28.5435 C   0  0  0  0  0  0  0  0  0  0  0  0
    0.5926   -8.8283   28.5924 C   0  0  0  0  0  0  0  0  0  0  0  0
    1.8467   -7.2452   29.2248 H   0  0  0  0  0  0  0  0  0  0  0  0
    3.7809   -8.7165   29.8053 H   0  0  0  0  0  0  0  0  0  0  0  0
    3.4590  -11.2093   29.6895 H   0  0  0  0  0  0  0  0  0  0  0  0
    1.6575  -13.1577   29.2419 H   0  0  0  0  0  0  0  0  0  0  0  0
   -3.0172  -12.0973   28.3253 H   0  0  0  0  0  0  0  0  0  0  0  0
   -4.8283  -13.7108   28.8121 H   0  0  0  0  0  0  0  0  0  0  0  0
   -0.0445  -15.0721   29.2971 H   0  0  0  0  0  0  0  0  0  0  0  0
   -3.5963  -18.3511   30.4745 H   0  0  0  0  0  0  0  0  0  0  0  0
   -5.9293  -15.3198   30.3165 H   0  0  0  0  0  0  0  0  0  0  0  0
   -5.7555  -18.2684   31.2495 H   0  0  0  0  0  0  0  0  0  0  0  0
   -6.9819  -17.0111   31.6612 H   0  0  0  0  0  0  0  0  0  0  0  0
   -7.5119  -16.8139   29.1346 H   0  0  0  0  0  0  0  0  0  0  0  0
   -6.1981  -18.0259   28.7954 H   0  0  0  0  0  0  0  0  0  0  0  0
   -0.2438   -8.1905   28.3257 H   0  0  0  0  0  0  0  0  0  0  0  0
  1  2  1  0
  2  3  2  0
  3  4  1  0
  4  5  1  0
  5  6  2  0
  6  7  1  0
  7  8  2  0
  8  9  1  0
  9 10  2  0
 10 11  1  0
 11 12  2  0
 11 13  1  0
 13 14  2  0
 14 15  1  0
 15 16  1  0
 16 17  1  0
 17 18  1  0
  6 19  1  0
 19 20  2  0
 20 21  1  0
 21  1  2  0
 20  4  1  0
 12  7  1  0
 18 16  1  0
 15 10  1  0
  1 22  1  0
  2 23  1  0
  3 24  1  0
  5 25  1  0
  8 26  1  0
  9 27  1  0
 12 28  1  0
 14 29  1  0
 16 30  1  0
 17 31  1  0
 17 32  1  0
 18 33  1  0
 18 34  1  0
 21 35  1  0
M  END
>  <Energy>  (144) 
65.9251695775569

>  <compound_id>  (144) 
54858

>  <target_id>  (144) 
1

>  <reference_id>  (144) 
103

>  <inspiration_ids>  (144) 
[94, 103]

>  <energy_score>  (144) 
-11.256327972477095

>  <distance_score>  (144) 
16.266283810927025

>  <path>  (144) 
/opt/xchem-fragalysis-2/maxwin/BulkDock/SCRATCH/511025/C54858-P103/C54858-P103.minimised.mol

>  <scratch_subdir>  (144) 
/opt/xchem-fragalysis-2/maxwin/BulkDock/SCRATCH/511025/C54858-P103

>  <fragmenstein_runtime>  (144) 
10.480653047561646

>  <fragmenstein_outcome>  (144) 
too moved

>  <fragmenstein_mode>  (144) 
expansion

>  <fragmenstein_error>  (144) 


$$$$
C54859-P94
     RDKit          3D

 33 36  0  0  0  0  0  0  0  0999 V2000
   -1.7367   -6.5874   20.0202 O   0  0  0  0  0  0  0  0  0  0  0  0
   -1.2124   -7.2457   20.8742 C   0  0  0  0  0  0  0  0  0  0  0  0
    0.1981   -7.3215   21.2954 N   0  0  0  0  0  0  0  0  0  0  0  0
    1.3552   -6.5613   20.8766 C   0  0  0  0  0  0  0  0  0  0  0  0
    2.6278   -7.0686   21.2108 C   0  0  0  0  0  0  0  0  0  0  0  0
    3.8339   -6.3311   21.0477 C   0  0  0  0  0  0  0  0  0  0  0  0
    3.7739   -5.0071   20.5914 C   0  0  0  0  0  0  0  0  0  0  0  0
    4.7602   -4.0394   20.5121 N   0  0  0  0  0  0  0  0  0  0  0  0
    4.1350   -2.9568   20.1120 C   0  0  0  0  0  0  0  0  0  0  0  0
    4.8260   -1.3718   19.9382 S   0  0  0  0  0  0  0  0  0  0  0  0
    2.8173   -3.2095   19.8290 N   0  0  0  0  0  0  0  0  0  0  0  0
    2.5316   -4.5135   20.1985 C   0  0  0  0  0  0  0  0  0  0  0  0
    1.3186   -5.2762   20.2864 C   0  0  0  0  0  0  0  0  0  0  0  0
   -2.1328   -8.0676   21.7449 C   0  0  0  0  0  0  0  0  0  0  0  0
   -2.2205   -7.9866   23.1312 C   0  0  0  0  0  0  0  0  0  0  0  0
   -3.2831   -8.6688   23.6580 N   0  0  0  0  0  0  0  0  0  0  0  0
   -4.0004   -9.0362   22.6208 C   0  0  0  0  0  0  0  0  0  0  0  0
   -5.3213   -9.5865   22.5393 C   0  0  0  0  0  0  0  0  0  0  0  0
   -5.7783  -10.0563   21.3632 C   0  0  0  0  0  0  0  0  0  0  0  0
   -4.9450  -10.0004   20.1739 C   0  0  0  0  0  0  0  0  0  0  0  0
   -3.7520   -9.3711   20.2224 C   0  0  0  0  0  0  0  0  0  0  0  0
   -3.2812   -8.8410   21.4290 N   0  0  0  0  0  0  0  0  0  0  0  0
    0.2978   -8.0502   21.9962 H   0  0  0  0  0  0  0  0  0  0  0  0
    2.7033   -8.0717   21.6325 H   0  0  0  0  0  0  0  0  0  0  0  0
    4.7826   -6.7596   21.3524 H   0  0  0  0  0  0  0  0  0  0  0  0
    4.2915   -1.0558   18.7485 H   0  0  0  0  0  0  0  0  0  0  0  0
    2.1415   -2.5267   19.5232 H   0  0  0  0  0  0  0  0  0  0  0  0
    0.3685   -4.8239   20.0143 H   0  0  0  0  0  0  0  0  0  0  0  0
   -1.5648   -7.4122   23.7767 H   0  0  0  0  0  0  0  0  0  0  0  0
   -5.9273   -9.6479   23.4339 H   0  0  0  0  0  0  0  0  0  0  0  0
   -6.7636  -10.5028   21.2858 H   0  0  0  0  0  0  0  0  0  0  0  0
   -5.3293  -10.4199   19.2504 H   0  0  0  0  0  0  0  0  0  0  0  0
   -3.1221   -9.2393   19.3513 H   0  0  0  0  0  0  0  0  0  0  0  0
  1  2  2  0
  2  3  1  0
  3  4  1  0
  4  5  2  0
  5  6  1  0
  6  7  2  0
  7  8  1  0
  8  9  2  0
  9 10  1  0
  9 11  1  0
 11 12  1  0
 12 13  2  0
  2 14  1  0
 14 15  2  0
 15 16  1  0
 16 17  2  0
 17 18  1  0
 18 19  2  0
 19 20  1  0
 20 21  2  0
 21 22  1  0
 13  4  1  0
 22 14  1  0
 12  7  1  0
 22 17  1  0
  3 23  1  0
  5 24  1  0
  6 25  1  0
 10 26  1  0
 11 27  1  0
 13 28  1  0
 15 29  1  0
 18 30  1  0
 19 31  1  0
 20 32  1  0
 21 33  1  0
M  END
>  <Energy>  (145) 
8.8109439747764995

>  <compound_id>  (145) 
54859

>  <target_id>  (145) 
1

>  <reference_id>  (145) 
94

>  <inspiration_ids>  (145) 
[94, 103]

>  <energy_score>  (145) 
-34.347171261035214

>  <distance_score>  (145) 
16.34923424794359

>  <path>  (145) 
/opt/xchem-fragalysis-2/maxwin/BulkDock/SCRATCH/511025/C54859-P94/C54859-P94.minimised.mol

>  <scratch_subdir>  (145) 
/opt/xchem-fragalysis-2/maxwin/BulkDock/SCRATCH/511025/C54859-P94

>  <fragmenstein_runtime>  (145) 
21.095170974731445

>  <fragmenstein_outcome>  (145) 
too moved

>  <fragmenstein_mode>  (145) 
expansion

>  <fragmenstein_error>  (145) 


$$$$
C54859-P103
     RDKit          3D

 33 36  0  0  0  0  0  0  0  0999 V2000
   -1.2053   -9.8271   20.3954 O   0  0  0  0  0  0  0  0  0  0  0  0
   -1.7224   -8.8021   20.7417 C   0  0  0  0  0  0  0  0  0  0  0  0
   -1.2250   -7.4151   20.6997 N   0  0  0  0  0  0  0  0  0  0  0  0
    0.0678   -6.8790   20.3192 C   0  0  0  0  0  0  0  0  0  0  0  0
    0.1168   -5.4923   20.0498 C   0  0  0  0  0  0  0  0  0  0  0  0
    1.3113   -4.7804   19.7573 C   0  0  0  0  0  0  0  0  0  0  0  0
    2.5337   -5.4574   19.7951 C   0  0  0  0  0  0  0  0  0  0  0  0
    3.8189   -4.9722   19.6698 N   0  0  0  0  0  0  0  0  0  0  0  0
    4.5867   -6.0087   19.8968 C   0  0  0  0  0  0  0  0  0  0  0  0
    6.3113   -5.9663   20.0586 S   0  0  0  0  0  0  0  0  0  0  0  0
    3.8553   -7.1587   20.0606 N   0  0  0  0  0  0  0  0  0  0  0  0
    2.5107   -6.8283   20.0469 C   0  0  0  0  0  0  0  0  0  0  0  0
    1.2995   -7.5735   20.2720 C   0  0  0  0  0  0  0  0  0  0  0  0
   -3.0743   -8.9099   21.4082 C   0  0  0  0  0  0  0  0  0  0  0  0
   -3.4667   -8.3613   22.6280 C   0  0  0  0  0  0  0  0  0  0  0  0
   -4.7311   -8.7258   23.0193 N   0  0  0  0  0  0  0  0  0  0  0  0
   -5.1760   -9.5195   22.0723 C   0  0  0  0  0  0  0  0  0  0  0  0
   -6.4235  -10.2249   21.9583 C   0  0  0  0  0  0  0  0  0  0  0  0
   -6.6198  -11.0859   20.9397 C   0  0  0  0  0  0  0  0  0  0  0  0
   -5.5870  -11.2943   19.9324 C   0  0  0  0  0  0  0  0  0  0  0  0
   -4.4189  -10.6200   20.0184 C   0  0  0  0  0  0  0  0  0  0  0  0
   -4.1908   -9.7285   21.0822 N   0  0  0  0  0  0  0  0  0  0  0  0
   -1.9620   -6.7891   20.9978 H   0  0  0  0  0  0  0  0  0  0  0  0
   -0.8078   -4.9155   20.0621 H   0  0  0  0  0  0  0  0  0  0  0  0
    1.2858   -3.7128   19.5659 H   0  0  0  0  0  0  0  0  0  0  0  0
    6.4946   -7.1681   20.6216 H   0  0  0  0  0  0  0  0  0  0  0  0
    4.2164   -8.0814   20.2474 H   0  0  0  0  0  0  0  0  0  0  0  0
    1.3440   -8.6378   20.4962 H   0  0  0  0  0  0  0  0  0  0  0  0
   -2.8723   -7.7123   23.2604 H   0  0  0  0  0  0  0  0  0  0  0  0
   -7.1708  -10.0684   22.7263 H   0  0  0  0  0  0  0  0  0  0  0  0
   -7.5466  -11.6416   20.8509 H   0  0  0  0  0  0  0  0  0  0  0  0
   -5.7790  -11.9925   19.1253 H   0  0  0  0  0  0  0  0  0  0  0  0
   -3.6156  -10.7407   19.3024 H   0  0  0  0  0  0  0  0  0  0  0  0
  1  2  2  0
  2  3  1  0
  3  4  1  0
  4  5  2  0
  5  6  1  0
  6  7  2  0
  7  8  1  0
  8  9  2  0
  9 10  1  0
  9 11  1  0
 11 12  1  0
 12 13  2  0
  2 14  1  0
 14 15  2  0
 15 16  1  0
 16 17  2  0
 17 18  1  0
 18 19  2  0
 19 20  1  0
 20 21  2  0
 21 22  1  0
 13  4  1  0
 22 14  1  0
 12  7  1  0
 22 17  1  0
  3 23  1  0
  5 24  1  0
  6 25  1  0
 10 26  1  0
 11 27  1  0
 13 28  1  0
 15 29  1  0
 18 30  1  0
 19 31  1  0
 20 32  1  0
 21 33  1  0
M  END
>  <Energy>  (146) 
4.1249812797348202

>  <compound_id>  (146) 
54859

>  <target_id>  (146) 
1

>  <reference_id>  (146) 
103

>  <inspiration_ids>  (146) 
[94, 103]

>  <energy_score>  (146) 
-39.03313395607677

>  <distance_score>  (146) 
16.237712410434256

>  <path>  (146) 
/opt/xchem-fragalysis-2/maxwin/BulkDock/SCRATCH/511025/C54859-P103/C54859-P103.minimised.mol

>  <scratch_subdir>  (146) 
/opt/xchem-fragalysis-2/maxwin/BulkDock/SCRATCH/511025/C54859-P103

>  <fragmenstein_runtime>  (146) 
28.31745219230652

>  <fragmenstein_outcome>  (146) 
too moved

>  <fragmenstein_mode>  (146) 
expansion

>  <fragmenstein_error>  (146) 


$$$$
C54860-P94
     RDKit          3D

 38 41  0  0  0  0  0  0  0  0999 V2000
    5.7771  -15.9174   27.6297 O   0  0  0  0  0  0  0  0  0  0  0  0
    5.3544  -16.0677   26.5132 C   0  0  0  0  0  0  0  0  0  0  0  0
    5.6310  -15.2894   25.2491 N   0  0  0  0  0  0  0  0  0  0  0  0
    6.4679  -13.9876   25.0125 C   0  0  0  0  0  0  0  0  0  0  0  0
    6.4597  -13.2374   23.5813 C   0  0  0  0  0  0  0  0  0  0  0  0
    7.2563  -11.9207   23.2854 C   0  0  0  0  0  0  0  0  0  0  0  0
    8.6186  -11.6460   23.3144 C   0  0  0  0  0  0  0  0  0  0  0  0
    8.8100  -10.4083   22.7170 N   0  0  0  0  0  0  0  0  0  0  0  0
    9.9872   -9.6887   22.4803 C   0  0  0  0  0  0  0  0  0  0  0  0
    9.9218   -8.4880   21.8770 C   0  0  0  0  0  0  0  0  0  0  0  0
    8.6217   -7.9728   21.4758 C   0  0  0  0  0  0  0  0  0  0  0  0
    7.4908   -8.6763   21.6923 C   0  0  0  0  0  0  0  0  0  0  0  0
    7.5516   -9.9506   22.3445 C   0  0  0  0  0  0  0  0  0  0  0  0
    6.6160  -10.8265   22.6788 N   0  0  0  0  0  0  0  0  0  0  0  0
    4.4219  -17.3625   26.4186 C   0  0  0  0  0  0  0  0  0  0  0  0
    4.4619  -18.2121   25.2905 C   0  0  0  0  0  0  0  0  0  0  0  0
    3.6142  -19.3341   25.1420 C   0  0  0  0  0  0  0  0  0  0  0  0
    2.6851  -19.7115   26.1111 C   0  0  0  0  0  0  0  0  0  0  0  0
    2.6483  -18.9227   27.2531 C   0  0  0  0  0  0  0  0  0  0  0  0
    1.8574  -19.0340   28.3756 N   0  0  0  0  0  0  0  0  0  0  0  0
    2.1834  -18.0131   29.2075 C   0  0  0  0  0  0  0  0  0  0  0  0
    3.1182  -17.2541   28.6814 N   0  0  0  0  0  0  0  0  0  0  0  0
    3.4707  -17.7897   27.4498 C   0  0  0  0  0  0  0  0  0  0  0  0
    5.0404  -15.6400   24.5061 H   0  0  0  0  0  0  0  0  0  0  0  0
    7.4994  -14.2740   25.2474 H   0  0  0  0  0  0  0  0  0  0  0  0
    6.1595  -13.2882   25.7944 H   0  0  0  0  0  0  0  0  0  0  0  0
    5.4088  -13.0408   23.3356 H   0  0  0  0  0  0  0  0  0  0  0  0
    6.8011  -13.9735   22.8412 H   0  0  0  0  0  0  0  0  0  0  0  0
    9.4606  -12.2344   23.6494 H   0  0  0  0  0  0  0  0  0  0  0  0
   10.9153  -10.1356   22.8135 H   0  0  0  0  0  0  0  0  0  0  0  0
   10.8084   -7.8884   21.7019 H   0  0  0  0  0  0  0  0  0  0  0  0
    8.5886   -6.9920   21.0137 H   0  0  0  0  0  0  0  0  0  0  0  0
    6.5168   -8.2976   21.4043 H   0  0  0  0  0  0  0  0  0  0  0  0
    5.1657  -17.9952   24.4893 H   0  0  0  0  0  0  0  0  0  0  0  0
    3.6801  -19.9217   24.2253 H   0  0  0  0  0  0  0  0  0  0  0  0
    2.0423  -20.5732   25.9665 H   0  0  0  0  0  0  0  0  0  0  0  0
    1.1777  -19.7579   28.5581 H   0  0  0  0  0  0  0  0  0  0  0  0
    1.7210  -17.8647   30.1745 H   0  0  0  0  0  0  0  0  0  0  0  0
  1  2  2  0
  2  3  1  0
  3  4  1  0
  4  5  1  0
  5  6  1  0
  6  7  2  0
  7  8  1  0
  8  9  1  0
  9 10  2  0
 10 11  1  0
 11 12  2  0
 12 13  1  0
 13 14  2  0
  2 15  1  0
 15 16  2  0
 16 17  1  0
 17 18  2  0
 18 19  1  0
 19 20  1  0
 20 21  1  0
 21 22  2  0
 22 23  1  0
 14  6  1  0
 23 15  1  0
 13  8  1  0
 23 19  2  0
  3 24  1  0
  4 25  1  0
  4 26  1  0
  5 27  1  0
  5 28  1  0
  7 29  1  0
  9 30  1  0
 10 31  1  0
 11 32  1  0
 12 33  1  0
 16 34  1  0
 17 35  1  0
 18 36  1  0
 20 37  1  0
 21 38  1  0
M  END
>  <Energy>  (147) 
90.053894876187584

>  <compound_id>  (147) 
54860

>  <target_id>  (147) 
1

>  <reference_id>  (147) 
94

>  <inspiration_ids>  (147) 
[94, 103]

>  <energy_score>  (147) 
12.767258065047258

>  <distance_score>  (147) 
14.88674166665575

>  <path>  (147) 
/opt/xchem-fragalysis-2/maxwin/BulkDock/SCRATCH/511025/C54860-P94/C54860-P94.minimised.mol

>  <scratch_subdir>  (147) 
/opt/xchem-fragalysis-2/maxwin/BulkDock/SCRATCH/511025/C54860-P94

>  <fragmenstein_runtime>  (147) 
20.691664218902588

>  <fragmenstein_outcome>  (147) 
too moved

>  <fragmenstein_mode>  (147) 
expansion

>  <fragmenstein_error>  (147) 


$$$$
C54860-P103
     RDKit          3D

 38 41  0  0  0  0  0  0  0  0999 V2000
    2.5576  -11.8999   23.6923 O   0  0  0  0  0  0  0  0  0  0  0  0
    1.3968  -12.0538   23.4548 C   0  0  0  0  0  0  0  0  0  0  0  0
    0.2782  -11.0615   22.4534 N   0  0  0  0  0  0  0  0  0  0  0  0
    0.5406   -9.4554   21.5950 C   0  0  0  0  0  0  0  0  0  0  0  0
    2.0027   -8.5449   21.3802 C   0  0  0  0  0  0  0  0  0  0  0  0
    2.2096   -7.3876   20.3908 C   0  0  0  0  0  0  0  0  0  0  0  0
    2.3134   -6.0373   20.7093 C   0  0  0  0  0  0  0  0  0  0  0  0
    2.6990   -5.3821   19.5669 N   0  0  0  0  0  0  0  0  0  0  0  0
    2.8323   -4.0141   19.3321 C   0  0  0  0  0  0  0  0  0  0  0  0
    3.0787   -3.5870   18.0830 C   0  0  0  0  0  0  0  0  0  0  0  0
    3.2509   -4.5740   17.0284 C   0  0  0  0  0  0  0  0  0  0  0  0
    3.2033   -5.8978   17.2814 C   0  0  0  0  0  0  0  0  0  0  0  0
    2.8832   -6.3553   18.5948 C   0  0  0  0  0  0  0  0  0  0  0  0
    2.6586   -7.5626   19.0838 N   0  0  0  0  0  0  0  0  0  0  0  0
    0.7245  -13.8562   24.2436 C   0  0  0  0  0  0  0  0  0  0  0  0
    1.0392  -13.4785   25.8233 C   0  0  0  0  0  0  0  0  0  0  0  0
    0.2909  -13.9862   26.9802 C   0  0  0  0  0  0  0  0  0  0  0  0
   -1.3314  -14.9107   27.4158 C   0  0  0  0  0  0  0  0  0  0  0  0
   -2.0324  -14.7006   25.8276 C   0  0  0  0  0  0  0  0  0  0  0  0
   -2.7101  -15.7666   25.2176 N   0  0  0  0  0  0  0  0  0  0  0  0
   -2.9012  -15.3376   24.0463 C   0  0  0  0  0  0  0  0  0  0  0  0
   -1.6745  -15.0548   23.5864 N   0  0  0  0  0  0  0  0  0  0  0  0
   -0.9565  -14.3790   24.4841 C   0  0  0  0  0  0  0  0  0  0  0  0
   -0.6246  -11.5018   22.3838 H   0  0  0  0  0  0  0  0  0  0  0  0
   -0.0245   -8.8036   22.2881 H   0  0  0  0  0  0  0  0  0  0  0  0
   -0.1688   -9.3982   20.7816 H   0  0  0  0  0  0  0  0  0  0  0  0
    2.8844   -9.1757   21.2906 H   0  0  0  0  0  0  0  0  0  0  0  0
    2.1381   -8.0291   22.3451 H   0  0  0  0  0  0  0  0  0  0  0  0
    2.1407   -5.5106   21.6360 H   0  0  0  0  0  0  0  0  0  0  0  0
    2.6761   -3.3467   20.1692 H   0  0  0  0  0  0  0  0  0  0  0  0
    3.1567   -2.5335   17.8365 H   0  0  0  0  0  0  0  0  0  0  0  0
    3.4177   -4.1997   16.0240 H   0  0  0  0  0  0  0  0  0  0  0  0
    3.3278   -6.6349   16.4968 H   0  0  0  0  0  0  0  0  0  0  0  0
    1.3298  -12.4513   25.9800 H   0  0  0  0  0  0  0  0  0  0  0  0
    1.1631  -14.7073   27.0544 H   0  0  0  0  0  0  0  0  0  0  0  0
   -1.9629  -14.8555   28.2865 H   0  0  0  0  0  0  0  0  0  0  0  0
   -2.9631  -16.6592   25.6376 H   0  0  0  0  0  0  0  0  0  0  0  0
   -3.8250  -15.3551   23.5210 H   0  0  0  0  0  0  0  0  0  0  0  0
  1  2  2  0
  2  3  1  0
  3  4  1  0
  4  5  1  0
  5  6  1  0
  6  7  2  0
  7  8  1  0
  8  9  1  0
  9 10  2  0
 10 11  1  0
 11 12  2  0
 12 13  1  0
 13 14  2  0
  2 15  1  0
 15 16  2  0
 16 17  1  0
 17 18  2  0
 18 19  1  0
 19 20  1  0
 20 21  1  0
 21 22  2  0
 22 23  1  0
 14  6  1  0
 23 15  1  0
 13  8  1  0
 23 19  2  0
  3 24  1  0
  4 25  1  0
  4 26  1  0
  5 27  1  0
  5 28  1  0
  7 29  1  0
  9 30  1  0
 10 31  1  0
 11 32  1  0
 12 33  1  0
 16 34  1  0
 17 35  1  0
 18 36  1  0
 20 37  1  0
 21 38  1  0
M  END
>  <Energy>  (148) 
621.94113635201518

>  <compound_id>  (148) 
54860

>  <target_id>  (148) 
1

>  <reference_id>  (148) 
103

>  <inspiration_ids>  (148) 
[94, 103]

>  <energy_score>  (148) 
544.6544995408731

>  <distance_score>  (148) 
14.233734251276406

>  <path>  (148) 
/opt/xchem-fragalysis-2/maxwin/BulkDock/SCRATCH/511025/C54860-P103/C54860-P103.minimised.mol

>  <scratch_subdir>  (148) 
/opt/xchem-fragalysis-2/maxwin/BulkDock/SCRATCH/511025/C54860-P103

>  <fragmenstein_runtime>  (148) 
18.00746464729309

>  <fragmenstein_outcome>  (148) 
too moved

>  <fragmenstein_mode>  (148) 
expansion

>  <fragmenstein_error>  (148) 


$$$$
C54866-P94
     RDKit          3D

 34 37  0  0  0  0  0  0  0  0999 V2000
   -1.7748  -12.6056   19.4976 O   0  0  0  0  0  0  0  0  0  0  0  0
   -0.8537  -13.4017   19.3281 C   0  0  0  0  0  0  0  0  0  0  0  0
    0.4670  -12.9380   19.0601 O   0  0  0  0  0  0  0  0  0  0  0  0
    0.5589  -11.4498   19.0287 C   0  0  0  0  0  0  0  0  0  0  0  0
    1.9376  -10.7607   18.6730 C   0  0  0  0  0  0  0  0  0  0  0  0
    2.2556  -10.1896   17.5099 N   0  0  0  0  0  0  0  0  0  0  0  0
    3.2992   -9.2947   17.7387 C   0  0  0  0  0  0  0  0  0  0  0  0
    3.9330   -8.3524   16.8976 C   0  0  0  0  0  0  0  0  0  0  0  0
    3.5782   -8.2300   15.6104 F   0  0  0  0  0  0  0  0  0  0  0  0
    4.9083   -7.4897   17.4138 C   0  0  0  0  0  0  0  0  0  0  0  0
    5.2942   -7.5874   18.7509 C   0  0  0  0  0  0  0  0  0  0  0  0
    4.7035   -8.5349   19.6038 C   0  0  0  0  0  0  0  0  0  0  0  0
    3.6936   -9.3585   19.0696 C   0  0  0  0  0  0  0  0  0  0  0  0
    2.8486  -10.3084   19.6310 N   0  0  0  0  0  0  0  0  0  0  0  0
   -1.0604  -14.8685   19.4165 C   0  0  0  0  0  0  0  0  0  0  0  0
   -0.1381  -15.9026   19.5112 C   0  0  0  0  0  0  0  0  0  0  0  0
   -0.7124  -17.1580   19.5974 N   0  0  0  0  0  0  0  0  0  0  0  0
   -2.0089  -16.9506   19.6197 C   0  0  0  0  0  0  0  0  0  0  0  0
   -3.0918  -17.8730   19.8234 C   0  0  0  0  0  0  0  0  0  0  0  0
   -4.3513  -17.4199   19.9636 C   0  0  0  0  0  0  0  0  0  0  0  0
   -4.6396  -16.0026   19.8434 C   0  0  0  0  0  0  0  0  0  0  0  0
   -3.6328  -15.1320   19.6185 C   0  0  0  0  0  0  0  0  0  0  0  0
   -2.2991  -15.5755   19.5411 N   0  0  0  0  0  0  0  0  0  0  0  0
   -0.1609  -11.0923   18.2818 H   0  0  0  0  0  0  0  0  0  0  0  0
    0.2605  -11.0825   20.0185 H   0  0  0  0  0  0  0  0  0  0  0  0
    5.3439   -6.7428   16.7575 H   0  0  0  0  0  0  0  0  0  0  0  0
    6.0456   -6.9099   19.1466 H   0  0  0  0  0  0  0  0  0  0  0  0
    4.9846   -8.5985   20.6504 H   0  0  0  0  0  0  0  0  0  0  0  0
    2.7904  -10.5154   20.6181 H   0  0  0  0  0  0  0  0  0  0  0  0
    0.9405  -15.7965   19.5142 H   0  0  0  0  0  0  0  0  0  0  0  0
   -2.8519  -18.9270   19.8925 H   0  0  0  0  0  0  0  0  0  0  0  0
   -5.1765  -18.1031   20.1327 H   0  0  0  0  0  0  0  0  0  0  0  0
   -5.6706  -15.6708   19.9079 H   0  0  0  0  0  0  0  0  0  0  0  0
   -3.8030  -14.0696   19.4981 H   0  0  0  0  0  0  0  0  0  0  0  0
  1  2  2  0
  2  3  1  0
  3  4  1  0
  4  5  1  0
  5  6  2  0
  6  7  1  0
  7  8  2  0
  8  9  1  0
  8 10  1  0
 10 11  2  0
 11 12  1  0
 12 13  2  0
 13 14  1  0
  2 15  1  0
 15 16  2  0
 16 17  1  0
 17 18  2  0
 18 19  1  0
 19 20  2  0
 20 21  1  0
 21 22  2  0
 22 23  1  0
 14  5  1  0
 23 15  1  0
 13  7  1  0
 23 18  1  0
  4 24  1  0
  4 25  1  0
 10 26  1  0
 11 27  1  0
 12 28  1  0
 14 29  1  0
 16 30  1  0
 19 31  1  0
 20 32  1  0
 21 33  1  0
 22 34  1  0
M  END
>  <Energy>  (149) 
45.733582177504054

>  <compound_id>  (149) 
54866

>  <target_id>  (149) 
1

>  <reference_id>  (149) 
94

>  <inspiration_ids>  (149) 
[94, 103]

>  <energy_score>  (149) 
-5.214903872934258

>  <distance_score>  (149) 
15.585158119685966

>  <path>  (149) 
/opt/xchem-fragalysis-2/maxwin/BulkDock/SCRATCH/511025/C54866-P94/C54866-P94.minimised.mol

>  <scratch_subdir>  (149) 
/opt/xchem-fragalysis-2/maxwin/BulkDock/SCRATCH/511025/C54866-P94

>  <fragmenstein_runtime>  (149) 
17.00140690803528

>  <fragmenstein_outcome>  (149) 
too moved

>  <fragmenstein_mode>  (149) 
expansion

>  <fragmenstein_error>  (149) 


$$$$
C54866-P103
     RDKit          3D

 34 37  0  0  0  0  0  0  0  0999 V2000
    5.4915  -16.3740   26.7903 O   0  0  0  0  0  0  0  0  0  0  0  0
    5.1498  -16.7782   25.6838 C   0  0  0  0  0  0  0  0  0  0  0  0
    5.5373  -16.0730   24.4949 O   0  0  0  0  0  0  0  0  0  0  0  0
    6.3000  -14.8027   24.7739 C   0  0  0  0  0  0  0  0  0  0  0  0
    6.6783  -13.7982   23.5835 C   0  0  0  0  0  0  0  0  0  0  0  0
    6.1532  -12.5887   23.3600 N   0  0  0  0  0  0  0  0  0  0  0  0
    6.9943  -11.8902   22.4886 C   0  0  0  0  0  0  0  0  0  0  0  0
    6.9330  -10.5812   21.9508 C   0  0  0  0  0  0  0  0  0  0  0  0
    5.9135   -9.7638   22.2567 F   0  0  0  0  0  0  0  0  0  0  0  0
    7.9502  -10.1082   21.1076 C   0  0  0  0  0  0  0  0  0  0  0  0
    9.0359  -10.9264   20.7997 C   0  0  0  0  0  0  0  0  0  0  0  0
    9.1262  -12.2292   21.3240 C   0  0  0  0  0  0  0  0  0  0  0  0
    8.0861  -12.6824   22.1619 C   0  0  0  0  0  0  0  0  0  0  0  0
    7.8576  -13.8765   22.8382 N   0  0  0  0  0  0  0  0  0  0  0  0
    4.2858  -17.9923   25.5158 C   0  0  0  0  0  0  0  0  0  0  0  0
    4.1515  -18.8590   24.4395 C   0  0  0  0  0  0  0  0  0  0  0  0
    3.1542  -19.8043   24.6028 N   0  0  0  0  0  0  0  0  0  0  0  0
    2.6355  -19.5735   25.7827 C   0  0  0  0  0  0  0  0  0  0  0  0
    1.5166  -20.1867   26.4369 C   0  0  0  0  0  0  0  0  0  0  0  0
    1.1658  -19.7953   27.6744 C   0  0  0  0  0  0  0  0  0  0  0  0
    1.9374  -18.7767   28.3663 C   0  0  0  0  0  0  0  0  0  0  0  0
    2.9766  -18.1818   27.7438 C   0  0  0  0  0  0  0  0  0  0  0  0
    3.3278  -18.5378   26.4347 N   0  0  0  0  0  0  0  0  0  0  0  0
    7.2428  -15.0990   25.2492 H   0  0  0  0  0  0  0  0  0  0  0  0
    5.7055  -14.2178   25.4850 H   0  0  0  0  0  0  0  0  0  0  0  0
    7.8806   -9.1022   20.7084 H   0  0  0  0  0  0  0  0  0  0  0  0
    9.8234  -10.5594   20.1451 H   0  0  0  0  0  0  0  0  0  0  0  0
    9.9716  -12.8668   21.0815 H   0  0  0  0  0  0  0  0  0  0  0  0
    8.4891  -14.6634   22.8505 H   0  0  0  0  0  0  0  0  0  0  0  0
    4.7103  -18.8183   23.5115 H   0  0  0  0  0  0  0  0  0  0  0  0
    0.9741  -20.9606   25.9063 H   0  0  0  0  0  0  0  0  0  0  0  0
    0.3235  -20.2455   28.1901 H   0  0  0  0  0  0  0  0  0  0  0  0
    1.6669  -18.5220   29.3856 H   0  0  0  0  0  0  0  0  0  0  0  0
    3.5954  -17.4263   28.2062 H   0  0  0  0  0  0  0  0  0  0  0  0
  1  2  2  0
  2  3  1  0
  3  4  1  0
  4  5  1  0
  5  6  2  0
  6  7  1  0
  7  8  2  0
  8  9  1  0
  8 10  1  0
 10 11  2  0
 11 12  1  0
 12 13  2  0
 13 14  1  0
  2 15  1  0
 15 16  2  0
 16 17  1  0
 17 18  2  0
 18 19  1  0
 19 20  2  0
 20 21  1  0
 21 22  2  0
 22 23  1  0
 14  5  1  0
 23 15  1  0
 13  7  1  0
 23 18  1  0
  4 24  1  0
  4 25  1  0
 10 26  1  0
 11 27  1  0
 12 28  1  0
 14 29  1  0
 16 30  1  0
 19 31  1  0
 20 32  1  0
 21 33  1  0
 22 34  1  0
M  END
>  <Energy>  (150) 
51.086591335206244

>  <compound_id>  (150) 
54866

>  <target_id>  (150) 
1

>  <reference_id>  (150) 
103

>  <inspiration_ids>  (150) 
[94, 103]

>  <energy_score>  (150) 
0.13810528476864192

>  <distance_score>  (150) 
15.83164916399953

>  <path>  (150) 
/opt/xchem-fragalysis-2/maxwin/BulkDock/SCRATCH/511025/C54866-P103/C54866-P103.minimised.mol

>  <scratch_subdir>  (150) 
/opt/xchem-fragalysis-2/maxwin/BulkDock/SCRATCH/511025/C54866-P103

>  <fragmenstein_runtime>  (150) 
13.684412956237793

>  <fragmenstein_outcome>  (150) 
too moved

>  <fragmenstein_mode>  (150) 
expansion

>  <fragmenstein_error>  (150) 


$$$$
C54869-P94
     RDKit          3D

 39 42  0  0  0  0  0  0  0  0999 V2000
   11.4238   -5.0760   23.0423 C   0  0  0  0  0  0  0  0  0  0  0  0
   10.7883   -6.4304   22.9055 C   0  0  0  0  0  0  0  0  0  0  0  0
   11.2898   -7.3484   21.9781 C   0  0  0  0  0  0  0  0  0  0  0  0
   10.7166   -8.6257   21.8199 C   0  0  0  0  0  0  0  0  0  0  0  0
    9.6665   -9.0147   22.6588 C   0  0  0  0  0  0  0  0  0  0  0  0
    8.9912  -10.2248   22.7627 N   0  0  0  0  0  0  0  0  0  0  0  0
    8.2377  -10.1328   23.8365 C   0  0  0  0  0  0  0  0  0  0  0  0
    7.5071  -11.0464   24.5459 N   0  0  0  0  0  0  0  0  0  0  0  0
    7.1203  -12.4625   24.1539 C   0  0  0  0  0  0  0  0  0  0  0  0
    6.8442  -13.4250   25.4547 C   0  0  0  0  0  0  0  0  0  0  0  0
    5.9718  -14.7884   25.5612 C   0  0  0  0  0  0  0  0  0  0  0  0
    5.4443  -15.3404   26.7408 C   0  0  0  0  0  0  0  0  0  0  0  0
    4.9227  -16.5935   26.4506 N   0  0  0  0  0  0  0  0  0  0  0  0
    4.2488  -17.5298   27.2573 C   0  0  0  0  0  0  0  0  0  0  0  0
    3.7292  -18.6473   26.7166 C   0  0  0  0  0  0  0  0  0  0  0  0
    3.9404  -18.8874   25.2994 C   0  0  0  0  0  0  0  0  0  0  0  0
    4.6576  -18.0267   24.5407 C   0  0  0  0  0  0  0  0  0  0  0  0
    5.1666  -16.7949   25.0966 C   0  0  0  0  0  0  0  0  0  0  0  0
    5.7708  -15.7344   24.5536 N   0  0  0  0  0  0  0  0  0  0  0  0
    8.3010   -8.8339   24.3183 N   0  0  0  0  0  0  0  0  0  0  0  0
    9.2294   -8.1109   23.6128 C   0  0  0  0  0  0  0  0  0  0  0  0
    9.7427   -6.8123   23.7598 C   0  0  0  0  0  0  0  0  0  0  0  0
   12.2399   -5.1169   23.7700 H   0  0  0  0  0  0  0  0  0  0  0  0
   10.6894   -4.3340   23.3726 H   0  0  0  0  0  0  0  0  0  0  0  0
   11.8215   -4.7329   22.0813 H   0  0  0  0  0  0  0  0  0  0  0  0
   12.1448   -7.0682   21.3692 H   0  0  0  0  0  0  0  0  0  0  0  0
   11.0931   -9.3482   21.1092 H   0  0  0  0  0  0  0  0  0  0  0  0
    7.1447  -10.7899   25.4557 H   0  0  0  0  0  0  0  0  0  0  0  0
    7.9119  -12.9145   23.5471 H   0  0  0  0  0  0  0  0  0  0  0  0
    6.2037  -12.4173   23.5580 H   0  0  0  0  0  0  0  0  0  0  0  0
    6.4173  -12.7752   26.2302 H   0  0  0  0  0  0  0  0  0  0  0  0
    7.8383  -13.7070   25.8302 H   0  0  0  0  0  0  0  0  0  0  0  0
    5.4377  -14.9660   27.7521 H   0  0  0  0  0  0  0  0  0  0  0  0
    4.1890  -17.3154   28.3088 H   0  0  0  0  0  0  0  0  0  0  0  0
    3.2075  -19.3904   27.3087 H   0  0  0  0  0  0  0  0  0  0  0  0
    3.5318  -19.7954   24.8666 H   0  0  0  0  0  0  0  0  0  0  0  0
    4.8250  -18.2073   23.4847 H   0  0  0  0  0  0  0  0  0  0  0  0
    7.8161   -8.5152   25.1385 H   0  0  0  0  0  0  0  0  0  0  0  0
    9.3753   -6.1465   24.5342 H   0  0  0  0  0  0  0  0  0  0  0  0
  1  2  1  0
  2  3  2  0
  3  4  1  0
  4  5  2  0
  5  6  1  0
  6  7  2  0
  7  8  1  0
  8  9  1  0
  9 10  1  0
 10 11  1  0
 11 12  2  0
 12 13  1  0
 13 14  1  0
 14 15  2  0
 15 16  1  0
 16 17  2  0
 17 18  1  0
 18 19  2  0
  7 20  1  0
 20 21  1  0
 21 22  2  0
 22  2  1  0
 21  5  1  0
 19 11  1  0
 18 13  1  0
  1 23  1  0
  1 24  1  0
  1 25  1  0
  3 26  1  0
  4 27  1  0
  8 28  1  0
  9 29  1  0
  9 30  1  0
 10 31  1  0
 10 32  1  0
 12 33  1  0
 14 34  1  0
 15 35  1  0
 16 36  1  0
 17 37  1  0
 20 38  1  0
 22 39  1  0
M  END
>  <Energy>  (151) 
46.539809342628828

>  <compound_id>  (151) 
54869

>  <target_id>  (151) 
1

>  <reference_id>  (151) 
94

>  <inspiration_ids>  (151) 
[94, 103]

>  <energy_score>  (151) 
-10.952627935946737

>  <distance_score>  (151) 
15.75779834028555

>  <path>  (151) 
/opt/xchem-fragalysis-2/maxwin/BulkDock/SCRATCH/511025/C54869-P94/C54869-P94.minimised.mol

>  <scratch_subdir>  (151) 
/opt/xchem-fragalysis-2/maxwin/BulkDock/SCRATCH/511025/C54869-P94

>  <fragmenstein_runtime>  (151) 
21.49513030052185

>  <fragmenstein_outcome>  (151) 
too moved

>  <fragmenstein_mode>  (151) 
expansion

>  <fragmenstein_error>  (151) 


$$$$
C54869-P103
     RDKit          3D

 39 42  0  0  0  0  0  0  0  0999 V2000
   13.1174   -2.3155   17.0672 C   0  0  0  0  0  0  0  0  0  0  0  0
   11.8360   -2.0039   17.7898 C   0  0  0  0  0  0  0  0  0  0  0  0
   10.6307   -0.7247   16.9953 C   0  0  0  0  0  0  0  0  0  0  0  0
    8.9406   -0.1383   17.8202 C   0  0  0  0  0  0  0  0  0  0  0  0
    8.5705   -1.1823   19.4604 C   0  0  0  0  0  0  0  0  0  0  0  0
    7.4264   -1.2269   20.3693 N   0  0  0  0  0  0  0  0  0  0  0  0
    7.3985   -2.3627   21.1324 C   0  0  0  0  0  0  0  0  0  0  0  0
    6.3001   -2.8569   21.8602 N   0  0  0  0  0  0  0  0  0  0  0  0
    5.4373   -4.1099   21.4210 C   0  0  0  0  0  0  0  0  0  0  0  0
    4.3888   -4.7124   22.5638 C   0  0  0  0  0  0  0  0  0  0  0  0
    3.2056   -5.8544   22.3478 C   0  0  0  0  0  0  0  0  0  0  0  0
    3.0324   -6.9259   21.4731 C   0  0  0  0  0  0  0  0  0  0  0  0
    1.7525   -7.4653   21.6774 N   0  0  0  0  0  0  0  0  0  0  0  0
    1.0351   -8.4248   20.9342 C   0  0  0  0  0  0  0  0  0  0  0  0
   -0.2491   -8.6953   21.2399 C   0  0  0  0  0  0  0  0  0  0  0  0
   -0.8631   -7.9576   22.3282 C   0  0  0  0  0  0  0  0  0  0  0  0
   -0.1534   -7.0953   23.0921 C   0  0  0  0  0  0  0  0  0  0  0  0
    1.2129   -6.7869   22.7635 C   0  0  0  0  0  0  0  0  0  0  0  0
    2.0757   -5.8765   23.2148 N   0  0  0  0  0  0  0  0  0  0  0  0
    8.5814   -3.1570   21.0981 N   0  0  0  0  0  0  0  0  0  0  0  0
    9.6059   -2.6075   20.2120 C   0  0  0  0  0  0  0  0  0  0  0  0
   11.6124   -2.7412   19.6199 C   0  0  0  0  0  0  0  0  0  0  0  0
   13.8736   -1.5673   17.3159 H   0  0  0  0  0  0  0  0  0  0  0  0
   13.4738   -3.3067   17.3596 H   0  0  0  0  0  0  0  0  0  0  0  0
   12.9428   -2.3154   15.9882 H   0  0  0  0  0  0  0  0  0  0  0  0
   10.8855   -0.3123   16.0152 H   0  0  0  0  0  0  0  0  0  0  0  0
    8.2592    0.5382   17.3405 H   0  0  0  0  0  0  0  0  0  0  0  0
    5.6264   -2.0966   21.9905 H   0  0  0  0  0  0  0  0  0  0  0  0
    6.1195   -4.9144   21.1310 H   0  0  0  0  0  0  0  0  0  0  0  0
    4.8486   -3.8105   20.5482 H   0  0  0  0  0  0  0  0  0  0  0  0
    3.8512   -3.8430   22.9661 H   0  0  0  0  0  0  0  0  0  0  0  0
    5.0083   -5.1044   23.3813 H   0  0  0  0  0  0  0  0  0  0  0  0
    3.6472   -7.3044   20.6704 H   0  0  0  0  0  0  0  0  0  0  0  0
    1.5640   -8.9116   20.1262 H   0  0  0  0  0  0  0  0  0  0  0  0
   -0.8304   -9.4278   20.6933 H   0  0  0  0  0  0  0  0  0  0  0  0
   -1.9163   -8.1301   22.5199 H   0  0  0  0  0  0  0  0  0  0  0  0
   -0.6181   -6.5582   23.9107 H   0  0  0  0  0  0  0  0  0  0  0  0
    8.7544   -3.9157   21.7367 H   0  0  0  0  0  0  0  0  0  0  0  0
   12.3032   -3.4414   20.1402 H   0  0  0  0  0  0  0  0  0  0  0  0
  1  2  1  0
  2  3  2  0
  3  4  1  0
  4  5  2  0
  5  6  1  0
  6  7  2  0
  7  8  1  0
  8  9  1  0
  9 10  1  0
 10 11  1  0
 11 12  2  0
 12 13  1  0
 13 14  1  0
 14 15  2  0
 15 16  1  0
 16 17  2  0
 17 18  1  0
 18 19  2  0
  7 20  1  0
 20 21  1  0
 21 22  2  0
 22  2  1  0
 21  5  1  0
 19 11  1  0
 18 13  1  0
  1 23  1  0
  1 24  1  0
  1 25  1  0
  3 26  1  0
  4 27  1  0
  8 28  1  0
  9 29  1  0
  9 30  1  0
 10 31  1  0
 10 32  1  0
 12 33  1  0
 14 34  1  0
 15 35  1  0
 16 36  1  0
 17 37  1  0
 20 38  1  0
 22 39  1  0
M  END
>  <Energy>  (152) 
695.59402940369262

>  <compound_id>  (152) 
54869

>  <target_id>  (152) 
1

>  <reference_id>  (152) 
103

>  <inspiration_ids>  (152) 
[94, 103]

>  <energy_score>  (152) 
638.1015921251212

>  <distance_score>  (152) 
16.66138547328597

>  <path>  (152) 
/opt/xchem-fragalysis-2/maxwin/BulkDock/SCRATCH/511025/C54869-P103/C54869-P103.minimised.mol

>  <scratch_subdir>  (152) 
/opt/xchem-fragalysis-2/maxwin/BulkDock/SCRATCH/511025/C54869-P103

>  <fragmenstein_runtime>  (152) 
20.574300289154053

>  <fragmenstein_outcome>  (152) 
too moved

>  <fragmenstein_mode>  (152) 
expansion

>  <fragmenstein_error>  (152) 


$$$$
C54875-P94
     RDKit          3D

 47 50  0  0  0  0  0  0  0  0999 V2000
    0.9775  -19.4011   25.1340 C   0  0  0  0  0  0  0  0  0  0  0  0
   -0.3528  -18.9775   25.6473 C   0  0  0  0  0  0  0  0  0  0  0  0
   -1.3537  -19.8093   25.8743 N   0  0  0  0  0  0  0  0  0  0  0  0
   -2.3416  -19.0686   26.4518 C   0  0  0  0  0  0  0  0  0  0  0  0
   -3.5882  -19.5076   26.9469 C   0  0  0  0  0  0  0  0  0  0  0  0
   -4.4406  -18.5834   27.5498 C   0  0  0  0  0  0  0  0  0  0  0  0
   -4.0502  -17.2498   27.6542 C   0  0  0  0  0  0  0  0  0  0  0  0
   -2.8096  -16.7950   27.1589 C   0  0  0  0  0  0  0  0  0  0  0  0
   -1.9572  -17.7243   26.5399 C   0  0  0  0  0  0  0  0  0  0  0  0
   -0.6751  -17.6603   25.9602 N   0  0  0  0  0  0  0  0  0  0  0  0
    0.2906  -16.5242   25.9795 C   0  0  0  0  0  0  0  0  0  0  0  0
    1.1592  -16.0252   24.6606 C   0  0  0  0  0  0  0  0  0  0  0  0
    2.6683  -15.4173   24.9174 C   0  0  0  0  0  0  0  0  0  0  0  0
    3.1325  -15.6585   26.0033 O   0  0  0  0  0  0  0  0  0  0  0  0
    3.2780  -14.7392   23.7262 N   0  0  0  0  0  0  0  0  0  0  0  0
    4.6687  -14.0391   23.5451 C   0  0  0  0  0  0  0  0  0  0  0  0
    4.8220  -12.9853   22.3456 C   0  0  0  0  0  0  0  0  0  0  0  0
    5.9189  -11.8865   22.1838 C   0  0  0  0  0  0  0  0  0  0  0  0
    6.1238  -11.0978   21.0475 C   0  0  0  0  0  0  0  0  0  0  0  0
    7.0593  -10.1402   21.3674 N   0  0  0  0  0  0  0  0  0  0  0  0
    7.5410   -9.0617   20.6191 C   0  0  0  0  0  0  0  0  0  0  0  0
    8.4530   -8.2380   21.1669 C   0  0  0  0  0  0  0  0  0  0  0  0
    8.9447   -8.5250   22.5017 C   0  0  0  0  0  0  0  0  0  0  0  0
    8.4641   -9.5611   23.2184 C   0  0  0  0  0  0  0  0  0  0  0  0
    7.4525  -10.4104   22.6705 C   0  0  0  0  0  0  0  0  0  0  0  0
    6.7628  -11.4231   23.1835 N   0  0  0  0  0  0  0  0  0  0  0  0
    1.0590  -19.1884   24.0643 H   0  0  0  0  0  0  0  0  0  0  0  0
    1.7934  -18.9007   25.6631 H   0  0  0  0  0  0  0  0  0  0  0  0
    1.1084  -20.4796   25.2708 H   0  0  0  0  0  0  0  0  0  0  0  0
   -3.8516  -20.5565   26.8764 H   0  0  0  0  0  0  0  0  0  0  0  0
   -5.3916  -18.9000   27.9660 H   0  0  0  0  0  0  0  0  0  0  0  0
   -4.7088  -16.5398   28.1523 H   0  0  0  0  0  0  0  0  0  0  0  0
   -2.5217  -15.7554   27.2785 H   0  0  0  0  0  0  0  0  0  0  0  0
   -0.2767  -15.6525   26.3244 H   0  0  0  0  0  0  0  0  0  0  0  0
    0.9956  -16.7844   26.7779 H   0  0  0  0  0  0  0  0  0  0  0  0
    1.2858  -16.8693   23.9770 H   0  0  0  0  0  0  0  0  0  0  0  0
    0.5716  -15.2592   24.1444 H   0  0  0  0  0  0  0  0  0  0  0  0
    2.5672  -14.6304   23.0012 H   0  0  0  0  0  0  0  0  0  0  0  0
    4.9449  -13.5980   24.5014 H   0  0  0  0  0  0  0  0  0  0  0  0
    5.3742  -14.8600   23.3734 H   0  0  0  0  0  0  0  0  0  0  0  0
    4.8142  -13.5677   21.4145 H   0  0  0  0  0  0  0  0  0  0  0  0
    3.8831  -12.4435   22.3648 H   0  0  0  0  0  0  0  0  0  0  0  0
    5.6577  -11.1180   20.0738 H   0  0  0  0  0  0  0  0  0  0  0  0
    7.1233   -8.9328   19.6316 H   0  0  0  0  0  0  0  0  0  0  0  0
    8.8428   -7.3591   20.6726 H   0  0  0  0  0  0  0  0  0  0  0  0
    9.7125   -7.8769   22.9146 H   0  0  0  0  0  0  0  0  0  0  0  0
    8.8256   -9.7761   24.2175 H   0  0  0  0  0  0  0  0  0  0  0  0
  1  2  1  0
  2  3  2  0
  3  4  1  0
  4  5  2  0
  5  6  1  0
  6  7  2  0
  7  8  1  0
  8  9  2  0
  9 10  1  0
 10 11  1  0
 11 12  1  0
 12 13  1  0
 13 14  2  0
 13 15  1  0
 15 16  1  0
 16 17  1  0
 17 18  1  0
 18 19  2  0
 19 20  1  0
 20 21  1  0
 21 22  2  0
 22 23  1  0
 23 24  2  0
 24 25  1  0
 25 26  2  0
 10  2  1  0
 26 18  1  0
  9  4  1  0
 25 20  1  0
  1 27  1  0
  1 28  1  0
  1 29  1  0
  5 30  1  0
  6 31  1  0
  7 32  1  0
  8 33  1  0
 11 34  1  0
 11 35  1  0
 12 36  1  0
 12 37  1  0
 15 38  1  0
 16 39  1  0
 16 40  1  0
 17 41  1  0
 17 42  1  0
 19 43  1  0
 21 44  1  0
 22 45  1  0
 23 46  1  0
 24 47  1  0
M  END
>  <Energy>  (153) 
64.640717162823194

>  <compound_id>  (153) 
54875

>  <target_id>  (153) 
1

>  <reference_id>  (153) 
94

>  <inspiration_ids>  (153) 
[94, 103]

>  <energy_score>  (153) 
21.213419934157628

>  <distance_score>  (153) 
13.551477959502963

>  <path>  (153) 
/opt/xchem-fragalysis-2/maxwin/BulkDock/SCRATCH/511025/C54875-P94/C54875-P94.minimised.mol

>  <scratch_subdir>  (153) 
/opt/xchem-fragalysis-2/maxwin/BulkDock/SCRATCH/511025/C54875-P94

>  <fragmenstein_runtime>  (153) 
35.479926109313965

>  <fragmenstein_outcome>  (153) 
too moved

>  <fragmenstein_mode>  (153) 
expansion

>  <fragmenstein_error>  (153) 


$$$$
C54875-P103
     RDKit          3D

 47 50  0  0  0  0  0  0  0  0999 V2000
    0.9306  -15.3449   32.8752 C   0  0  0  0  0  0  0  0  0  0  0  0
   -0.3320  -15.4503   32.0926 C   0  0  0  0  0  0  0  0  0  0  0  0
   -1.0450  -16.5620   32.0564 N   0  0  0  0  0  0  0  0  0  0  0  0
   -2.2100  -16.2579   31.4209 C   0  0  0  0  0  0  0  0  0  0  0  0
   -3.3247  -17.0998   31.2006 C   0  0  0  0  0  0  0  0  0  0  0  0
   -4.4669  -16.5844   30.5892 C   0  0  0  0  0  0  0  0  0  0  0  0
   -4.4927  -15.2434   30.2149 C   0  0  0  0  0  0  0  0  0  0  0  0
   -3.3843  -14.3892   30.4246 C   0  0  0  0  0  0  0  0  0  0  0  0
   -2.2145  -14.9150   31.0161 C   0  0  0  0  0  0  0  0  0  0  0  0
   -0.9068  -14.4152   31.3255 N   0  0  0  0  0  0  0  0  0  0  0  0
   -0.3164  -12.8345   31.2462 C   0  0  0  0  0  0  0  0  0  0  0  0
    0.7269  -11.4692   29.9808 C   0  0  0  0  0  0  0  0  0  0  0  0
    1.9530  -10.7011   28.6492 C   0  0  0  0  0  0  0  0  0  0  0  0
    1.4240   -9.8952   27.9035 O   0  0  0  0  0  0  0  0  0  0  0  0
    3.4949  -11.1280   28.7792 N   0  0  0  0  0  0  0  0  0  0  0  0
    5.0105  -10.4806   27.9590 C   0  0  0  0  0  0  0  0  0  0  0  0
    5.8314   -9.1106   27.4815 C   0  0  0  0  0  0  0  0  0  0  0  0
    6.9124   -8.9229   26.3109 C   0  0  0  0  0  0  0  0  0  0  0  0
    8.1857   -8.3513   26.3884 C   0  0  0  0  0  0  0  0  0  0  0  0
    8.5467   -7.9291   25.1113 N   0  0  0  0  0  0  0  0  0  0  0  0
    9.6749   -7.2291   24.6612 C   0  0  0  0  0  0  0  0  0  0  0  0
    9.7834   -6.9000   23.3595 C   0  0  0  0  0  0  0  0  0  0  0  0
    8.7219   -7.2939   22.4481 C   0  0  0  0  0  0  0  0  0  0  0  0
    7.6356   -7.9615   22.8898 C   0  0  0  0  0  0  0  0  0  0  0  0
    7.5039   -8.2939   24.2757 C   0  0  0  0  0  0  0  0  0  0  0  0
    6.5281   -8.8611   24.9671 N   0  0  0  0  0  0  0  0  0  0  0  0
    0.9698  -14.4311   33.4726 H   0  0  0  0  0  0  0  0  0  0  0  0
    1.8056  -15.3923   32.2233 H   0  0  0  0  0  0  0  0  0  0  0  0
    1.0040  -16.1852   33.5746 H   0  0  0  0  0  0  0  0  0  0  0  0
   -3.2880  -18.1327   31.5304 H   0  0  0  0  0  0  0  0  0  0  0  0
   -5.3312  -17.2239   30.4295 H   0  0  0  0  0  0  0  0  0  0  0  0
   -5.3868  -14.8353   29.7478 H   0  0  0  0  0  0  0  0  0  0  0  0
   -3.4393  -13.3513   30.1105 H   0  0  0  0  0  0  0  0  0  0  0  0
    0.1508  -12.8963   32.2566 H   0  0  0  0  0  0  0  0  0  0  0  0
   -1.3991  -12.4886   31.3113 H   0  0  0  0  0  0  0  0  0  0  0  0
    1.6766  -11.1993   30.4372 H   0  0  0  0  0  0  0  0  0  0  0  0
    0.0145  -10.6121   29.9474 H   0  0  0  0  0  0  0  0  0  0  0  0
    3.5786  -11.8917   29.4384 H   0  0  0  0  0  0  0  0  0  0  0  0
    5.5745  -10.5859   28.9023 H   0  0  0  0  0  0  0  0  0  0  0  0
    5.4853  -11.3400   27.4588 H   0  0  0  0  0  0  0  0  0  0  0  0
    5.1022   -8.4258   27.1340 H   0  0  0  0  0  0  0  0  0  0  0  0
    6.3058   -8.6937   28.3801 H   0  0  0  0  0  0  0  0  0  0  0  0
    8.8116   -8.1104   27.2351 H   0  0  0  0  0  0  0  0  0  0  0  0
   10.4249   -6.9735   25.3986 H   0  0  0  0  0  0  0  0  0  0  0  0
   10.6381   -6.3540   22.9728 H   0  0  0  0  0  0  0  0  0  0  0  0
    8.8280   -7.0336   21.4007 H   0  0  0  0  0  0  0  0  0  0  0  0
    6.8345   -8.2540   22.2211 H   0  0  0  0  0  0  0  0  0  0  0  0
  1  2  1  0
  2  3  2  0
  3  4  1  0
  4  5  2  0
  5  6  1  0
  6  7  2  0
  7  8  1  0
  8  9  2  0
  9 10  1  0
 10 11  1  0
 11 12  1  0
 12 13  1  0
 13 14  2  0
 13 15  1  0
 15 16  1  0
 16 17  1  0
 17 18  1  0
 18 19  2  0
 19 20  1  0
 20 21  1  0
 21 22  2  0
 22 23  1  0
 23 24  2  0
 24 25  1  0
 25 26  2  0
 10  2  1  0
 26 18  1  0
  9  4  1  0
 25 20  1  0
  1 27  1  0
  1 28  1  0
  1 29  1  0
  5 30  1  0
  6 31  1  0
  7 32  1  0
  8 33  1  0
 11 34  1  0
 11 35  1  0
 12 36  1  0
 12 37  1  0
 15 38  1  0
 16 39  1  0
 16 40  1  0
 17 41  1  0
 17 42  1  0
 19 43  1  0
 21 44  1  0
 22 45  1  0
 23 46  1  0
 24 47  1  0
M  END
>  <Energy>  (154) 
396.29343089981825

>  <compound_id>  (154) 
54875

>  <target_id>  (154) 
1

>  <reference_id>  (154) 
103

>  <inspiration_ids>  (154) 
[94, 103]

>  <energy_score>  (154) 
352.86613367115433

>  <distance_score>  (154) 
13.554062477809431

>  <path>  (154) 
/opt/xchem-fragalysis-2/maxwin/BulkDock/SCRATCH/511025/C54875-P103/C54875-P103.minimised.mol

>  <scratch_subdir>  (154) 
/opt/xchem-fragalysis-2/maxwin/BulkDock/SCRATCH/511025/C54875-P103

>  <fragmenstein_runtime>  (154) 
30.47153091430664

>  <fragmenstein_outcome>  (154) 
too moved

>  <fragmenstein_mode>  (154) 
expansion

>  <fragmenstein_error>  (154) 


$$$$
C54877-P94
     RDKit          3D

 35 38  0  0  0  0  0  0  0  0999 V2000
    5.9772   -1.4400   20.8102 C   0  0  0  0  0  0  0  0  0  0  0  0
    5.1053   -2.6534   20.8072 C   0  0  0  0  0  0  0  0  0  0  0  0
    3.8265   -2.7030   20.4827 N   0  0  0  0  0  0  0  0  0  0  0  0
    3.3970   -3.9926   20.7558 C   0  0  0  0  0  0  0  0  0  0  0  0
    2.0964   -4.5784   20.7125 C   0  0  0  0  0  0  0  0  0  0  0  0
    1.8822   -5.9091   21.1616 C   0  0  0  0  0  0  0  0  0  0  0  0
    0.4701   -6.5569   21.1456 C   0  0  0  0  0  0  0  0  0  0  0  0
   -0.0233   -6.6896   20.0612 O   0  0  0  0  0  0  0  0  0  0  0  0
   -0.0299   -6.9152   22.4695 N   0  0  0  0  0  0  0  0  0  0  0  0
   -1.2785   -7.4389   22.8790 C   0  0  0  0  0  0  0  0  0  0  0  0
   -1.8329   -7.3129   24.1559 C   0  0  0  0  0  0  0  0  0  0  0  0
   -3.0477   -7.9333   24.2943 N   0  0  0  0  0  0  0  0  0  0  0  0
   -3.3149   -8.4179   23.1024 C   0  0  0  0  0  0  0  0  0  0  0  0
   -4.4850   -9.0738   22.6113 C   0  0  0  0  0  0  0  0  0  0  0  0
   -4.4569   -9.6626   21.4032 C   0  0  0  0  0  0  0  0  0  0  0  0
   -3.2337   -9.7036   20.6235 C   0  0  0  0  0  0  0  0  0  0  0  0
   -2.1671   -8.9886   21.0307 C   0  0  0  0  0  0  0  0  0  0  0  0
   -2.2128   -8.2776   22.2309 N   0  0  0  0  0  0  0  0  0  0  0  0
    3.0116   -6.6596   21.5340 C   0  0  0  0  0  0  0  0  0  0  0  0
    4.3236   -6.1129   21.5423 C   0  0  0  0  0  0  0  0  0  0  0  0
    4.4711   -4.7665   21.1823 C   0  0  0  0  0  0  0  0  0  0  0  0
    5.5477   -3.9047   21.1775 N   0  0  0  0  0  0  0  0  0  0  0  0
    5.9974   -0.9878   19.8162 H   0  0  0  0  0  0  0  0  0  0  0  0
    7.0007   -1.6738   21.1181 H   0  0  0  0  0  0  0  0  0  0  0  0
    5.5751   -0.7016   21.5110 H   0  0  0  0  0  0  0  0  0  0  0  0
    1.2576   -3.9782   20.3714 H   0  0  0  0  0  0  0  0  0  0  0  0
    0.6193   -6.5793   23.1710 H   0  0  0  0  0  0  0  0  0  0  0  0
   -1.3972   -6.7779   24.9899 H   0  0  0  0  0  0  0  0  0  0  0  0
   -5.3875   -9.0719   23.2096 H   0  0  0  0  0  0  0  0  0  0  0  0
   -5.3351  -10.1616   21.0059 H   0  0  0  0  0  0  0  0  0  0  0  0
   -3.2150  -10.2630   19.6946 H   0  0  0  0  0  0  0  0  0  0  0  0
   -1.2477   -8.9285   20.4606 H   0  0  0  0  0  0  0  0  0  0  0  0
    2.8736   -7.7066   21.8113 H   0  0  0  0  0  0  0  0  0  0  0  0
    5.1687   -6.7188   21.8525 H   0  0  0  0  0  0  0  0  0  0  0  0
    6.4813   -4.1327   21.4847 H   0  0  0  0  0  0  0  0  0  0  0  0
  1  2  1  0
  2  3  2  0
  3  4  1  0
  4  5  2  0
  5  6  1  0
  6  7  1  0
  7  8  2  0
  7  9  1  0
  9 10  1  0
 10 11  2  0
 11 12  1  0
 12 13  2  0
 13 14  1  0
 14 15  2  0
 15 16  1  0
 16 17  2  0
 17 18  1  0
  6 19  2  0
 19 20  1  0
 20 21  2  0
 21 22  1  0
 22  2  1  0
 21  4  1  0
 18 10  1  0
 18 13  1  0
  1 23  1  0
  1 24  1  0
  1 25  1  0
  5 26  1  0
  9 27  1  0
 11 28  1  0
 14 29  1  0
 15 30  1  0
 16 31  1  0
 17 32  1  0
 19 33  1  0
 20 34  1  0
 22 35  1  0
M  END
>  <Energy>  (155) 
77.002578542615424

>  <compound_id>  (155) 
54877

>  <target_id>  (155) 
1

>  <reference_id>  (155) 
94

>  <inspiration_ids>  (155) 
[94, 103]

>  <energy_score>  (155) 
-23.993483797119893

>  <distance_score>  (155) 
15.36129120865066

>  <path>  (155) 
/opt/xchem-fragalysis-2/maxwin/BulkDock/SCRATCH/511025/C54877-P94/C54877-P94.minimised.mol

>  <scratch_subdir>  (155) 
/opt/xchem-fragalysis-2/maxwin/BulkDock/SCRATCH/511025/C54877-P94

>  <fragmenstein_runtime>  (155) 
27.446094751358032

>  <fragmenstein_outcome>  (155) 
too moved

>  <fragmenstein_mode>  (155) 
expansion

>  <fragmenstein_error>  (155) 


$$$$
C54877-P103
     RDKit          3D

 35 38  0  0  0  0  0  0  0  0999 V2000
    8.9479   -7.1511   21.7504 C   0  0  0  0  0  0  0  0  0  0  0  0
    7.7267   -7.9852   21.9892 C   0  0  0  0  0  0  0  0  0  0  0  0
    7.6469   -9.2561   22.3787 N   0  0  0  0  0  0  0  0  0  0  0  0
    6.2924   -9.5881   22.4068 C   0  0  0  0  0  0  0  0  0  0  0  0
    5.4989  -10.8416   22.7503 C   0  0  0  0  0  0  0  0  0  0  0  0
    3.9063  -11.5698   22.6394 C   0  0  0  0  0  0  0  0  0  0  0  0
    2.9652  -13.2127   23.5086 C   0  0  0  0  0  0  0  0  0  0  0  0
    3.5223  -14.2520   23.6661 O   0  0  0  0  0  0  0  0  0  0  0  0
    1.3259  -13.0334   23.8521 N   0  0  0  0  0  0  0  0  0  0  0  0
   -0.0843  -14.3073   24.3954 C   0  0  0  0  0  0  0  0  0  0  0  0
   -1.4090  -13.5079   25.2123 C   0  0  0  0  0  0  0  0  0  0  0  0
   -2.6317  -13.6403   25.7991 N   0  0  0  0  0  0  0  0  0  0  0  0
   -2.2539  -14.7647   26.1873 C   0  0  0  0  0  0  0  0  0  0  0  0
   -2.2010  -15.4972   27.6301 C   0  0  0  0  0  0  0  0  0  0  0  0
   -2.5969  -16.7654   27.7492 C   0  0  0  0  0  0  0  0  0  0  0  0
   -2.9423  -17.3132   26.4918 C   0  0  0  0  0  0  0  0  0  0  0  0
   -2.6464  -16.6429   25.2727 C   0  0  0  0  0  0  0  0  0  0  0  0
   -1.7696  -15.1541   24.8215 N   0  0  0  0  0  0  0  0  0  0  0  0
    3.5694  -10.0505   22.4839 C   0  0  0  0  0  0  0  0  0  0  0  0
    4.2155   -8.5553   22.2312 C   0  0  0  0  0  0  0  0  0  0  0  0
    5.5721   -8.4531   22.1371 C   0  0  0  0  0  0  0  0  0  0  0  0
    6.4633   -7.4611   21.8480 N   0  0  0  0  0  0  0  0  0  0  0  0
    9.8035   -7.7958   21.5293 H   0  0  0  0  0  0  0  0  0  0  0  0
    8.7996   -6.4691   20.9088 H   0  0  0  0  0  0  0  0  0  0  0  0
    9.1786   -6.5620   22.6429 H   0  0  0  0  0  0  0  0  0  0  0  0
    6.2269  -11.3764   23.4010 H   0  0  0  0  0  0  0  0  0  0  0  0
    1.0774  -12.0425   23.7298 H   0  0  0  0  0  0  0  0  0  0  0  0
   -1.4185  -12.5067   25.5440 H   0  0  0  0  0  0  0  0  0  0  0  0
   -1.9666  -14.9520   28.5262 H   0  0  0  0  0  0  0  0  0  0  0  0
   -2.6544  -17.3049   28.6842 H   0  0  0  0  0  0  0  0  0  0  0  0
   -3.2389  -18.3654   26.5228 H   0  0  0  0  0  0  0  0  0  0  0  0
   -2.3354  -17.5805   24.9609 H   0  0  0  0  0  0  0  0  0  0  0  0
    2.6510   -9.7576   21.9326 H   0  0  0  0  0  0  0  0  0  0  0  0
    3.5218   -7.7491   21.9946 H   0  0  0  0  0  0  0  0  0  0  0  0
    6.2359   -6.5075   21.6066 H   0  0  0  0  0  0  0  0  0  0  0  0
  1  2  1  0
  2  3  2  0
  3  4  1  0
  4  5  2  0
  5  6  1  0
  6  7  1  0
  7  8  2  0
  7  9  1  0
  9 10  1  0
 10 11  2  0
 11 12  1  0
 12 13  2  0
 13 14  1  0
 14 15  2  0
 15 16  1  0
 16 17  2  0
 17 18  1  0
  6 19  2  0
 19 20  1  0
 20 21  2  0
 21 22  1  0
 22  2  1  0
 21  4  1  0
 18 10  1  0
 18 13  1  0
  1 23  1  0
  1 24  1  0
  1 25  1  0
  5 26  1  0
  9 27  1  0
 11 28  1  0
 14 29  1  0
 15 30  1  0
 16 31  1  0
 17 32  1  0
 19 33  1  0
 20 34  1  0
 22 35  1  0
M  END
>  <Energy>  (156) 
978.85266962038111

>  <compound_id>  (156) 
54877

>  <target_id>  (156) 
1

>  <reference_id>  (156) 
103

>  <inspiration_ids>  (156) 
[94, 103]

>  <energy_score>  (156) 
877.8566072806556

>  <distance_score>  (156) 
13.26508002206819

>  <path>  (156) 
/opt/xchem-fragalysis-2/maxwin/BulkDock/SCRATCH/511025/C54877-P103/C54877-P103.minimised.mol

>  <scratch_subdir>  (156) 
/opt/xchem-fragalysis-2/maxwin/BulkDock/SCRATCH/511025/C54877-P103

>  <fragmenstein_runtime>  (156) 
15.953543186187744

>  <fragmenstein_outcome>  (156) 
too moved

>  <fragmenstein_mode>  (156) 
expansion

>  <fragmenstein_error>  (156) 


$$$$
C54878-P94
     RDKit          3D

 38 41  0  0  0  0  0  0  0  0999 V2000
    1.9116  -16.6373   18.8675 C   0  0  0  0  0  0  0  0  0  0  0  0
    0.5830  -16.8234   19.5210 C   0  0  0  0  0  0  0  0  0  0  0  0
   -0.4901  -17.2472   18.8672 N   0  0  0  0  0  0  0  0  0  0  0  0
   -1.2606  -17.9140   19.7671 C   0  0  0  0  0  0  0  0  0  0  0  0
   -2.4079  -18.7214   19.5494 C   0  0  0  0  0  0  0  0  0  0  0  0
   -2.9368  -19.5298   20.5638 C   0  0  0  0  0  0  0  0  0  0  0  0
   -2.2878  -19.5909   21.7800 C   0  0  0  0  0  0  0  0  0  0  0  0
   -1.1612  -18.7807   22.0194 C   0  0  0  0  0  0  0  0  0  0  0  0
   -0.6853  -17.8129   21.0309 C   0  0  0  0  0  0  0  0  0  0  0  0
    0.2793  -16.5929   20.8917 N   0  0  0  0  0  0  0  0  0  0  0  0
    1.0058  -15.1426   21.9245 C   0  0  0  0  0  0  0  0  0  0  0  0
    2.6620  -14.4830   23.0893 C   0  0  0  0  0  0  0  0  0  0  0  0
    2.6081  -13.4264   23.7127 O   0  0  0  0  0  0  0  0  0  0  0  0
    4.0219  -15.6858   23.1421 N   0  0  0  0  0  0  0  0  0  0  0  0
    5.2096  -15.7228   23.9420 C   0  0  0  0  0  0  0  0  0  0  0  0
    5.6027  -15.2084   25.1720 C   0  0  0  0  0  0  0  0  0  0  0  0
    6.9529  -14.8375   24.9628 N   0  0  0  0  0  0  0  0  0  0  0  0
    7.6968  -13.7855   25.5311 C   0  0  0  0  0  0  0  0  0  0  0  0
    8.8598  -13.4052   24.9652 C   0  0  0  0  0  0  0  0  0  0  0  0
    9.3560  -14.1395   23.8103 C   0  0  0  0  0  0  0  0  0  0  0  0
    8.6677  -15.1795   23.2929 C   0  0  0  0  0  0  0  0  0  0  0  0
    7.3795  -15.5263   23.8265 C   0  0  0  0  0  0  0  0  0  0  0  0
    6.3586  -16.1818   23.2845 N   0  0  0  0  0  0  0  0  0  0  0  0
    1.7812  -16.1830   17.8796 H   0  0  0  0  0  0  0  0  0  0  0  0
    2.3804  -17.6164   18.7239 H   0  0  0  0  0  0  0  0  0  0  0  0
    2.6115  -16.0180   19.4297 H   0  0  0  0  0  0  0  0  0  0  0  0
   -2.8383  -18.7448   18.5532 H   0  0  0  0  0  0  0  0  0  0  0  0
   -3.8042  -20.1513   20.3651 H   0  0  0  0  0  0  0  0  0  0  0  0
   -2.6374  -20.2693   22.5532 H   0  0  0  0  0  0  0  0  0  0  0  0
   -0.6808  -18.9291   22.9776 H   0  0  0  0  0  0  0  0  0  0  0  0
    1.6008  -15.0250   20.9621 H   0  0  0  0  0  0  0  0  0  0  0  0
    0.0546  -14.6481   22.2378 H   0  0  0  0  0  0  0  0  0  0  0  0
    3.8520  -16.4262   22.4668 H   0  0  0  0  0  0  0  0  0  0  0  0
    5.0408  -14.7460   25.9691 H   0  0  0  0  0  0  0  0  0  0  0  0
    7.2555  -13.2792   26.3796 H   0  0  0  0  0  0  0  0  0  0  0  0
    9.4453  -12.5791   25.3539 H   0  0  0  0  0  0  0  0  0  0  0  0
   10.3121  -13.8433   23.3893 H   0  0  0  0  0  0  0  0  0  0  0  0
    9.0282  -15.7265   22.4293 H   0  0  0  0  0  0  0  0  0  0  0  0
  1  2  1  0
  2  3  2  0
  3  4  1  0
  4  5  2  0
  5  6  1  0
  6  7  2  0
  7  8  1  0
  8  9  2  0
  9 10  1  0
 10 11  1  0
 11 12  1  0
 12 13  2  0
 12 14  1  0
 14 15  1  0
 15 16  2  0
 16 17  1  0
 17 18  1  0
 18 19  2  0
 19 20  1  0
 20 21  2  0
 21 22  1  0
 22 23  2  0
 10  2  1  0
 23 15  1  0
  9  4  1  0
 22 17  1  0
  1 24  1  0
  1 25  1  0
  1 26  1  0
  5 27  1  0
  6 28  1  0
  7 29  1  0
  8 30  1  0
 11 31  1  0
 11 32  1  0
 14 33  1  0
 16 34  1  0
 18 35  1  0
 19 36  1  0
 20 37  1  0
 21 38  1  0
M  END
>  <Energy>  (157) 
321.11947070117964

>  <compound_id>  (157) 
54878

>  <target_id>  (157) 
1

>  <reference_id>  (157) 
94

>  <inspiration_ids>  (157) 
[94, 103]

>  <energy_score>  (157) 
292.302144873282

>  <distance_score>  (157) 
17.109461193782998

>  <path>  (157) 
/opt/xchem-fragalysis-2/maxwin/BulkDock/SCRATCH/511025/C54878-P94/C54878-P94.minimised.mol

>  <scratch_subdir>  (157) 
/opt/xchem-fragalysis-2/maxwin/BulkDock/SCRATCH/511025/C54878-P94

>  <fragmenstein_runtime>  (157) 
16.49170470237732

>  <fragmenstein_outcome>  (157) 
too moved

>  <fragmenstein_mode>  (157) 
expansion

>  <fragmenstein_error>  (157) 


$$$$
C54878-P103
     RDKit          3D

 38 41  0  0  0  0  0  0  0  0999 V2000
   -7.4852  -10.8694   24.3156 C   0  0  0  0  0  0  0  0  0  0  0  0
   -7.5091  -12.2331   23.7217 C   0  0  0  0  0  0  0  0  0  0  0  0
   -7.9193  -13.3031   24.3765 N   0  0  0  0  0  0  0  0  0  0  0  0
   -7.9239  -14.3200   23.4746 C   0  0  0  0  0  0  0  0  0  0  0  0
   -8.2966  -15.6652   23.6903 C   0  0  0  0  0  0  0  0  0  0  0  0
   -8.2790  -16.5518   22.6174 C   0  0  0  0  0  0  0  0  0  0  0  0
   -7.9124  -16.0884   21.3544 C   0  0  0  0  0  0  0  0  0  0  0  0
   -7.5339  -14.7452   21.1237 C   0  0  0  0  0  0  0  0  0  0  0  0
   -7.5129  -13.8616   22.2131 C   0  0  0  0  0  0  0  0  0  0  0  0
   -7.1591  -12.5093   22.3873 N   0  0  0  0  0  0  0  0  0  0  0  0
   -6.9000  -11.4043   21.3613 C   0  0  0  0  0  0  0  0  0  0  0  0
   -5.5766  -11.1689   20.4506 C   0  0  0  0  0  0  0  0  0  0  0  0
   -5.4574  -11.8901   19.4877 O   0  0  0  0  0  0  0  0  0  0  0  0
   -4.7461  -10.0032   20.9062 N   0  0  0  0  0  0  0  0  0  0  0  0
   -3.5879   -9.4180   20.3495 C   0  0  0  0  0  0  0  0  0  0  0  0
   -3.0623   -9.4461   19.0704 C   0  0  0  0  0  0  0  0  0  0  0  0
   -1.9502   -8.5857   19.0560 N   0  0  0  0  0  0  0  0  0  0  0  0
   -1.1152   -8.1586   18.0027 C   0  0  0  0  0  0  0  0  0  0  0  0
   -0.0530   -7.3669   18.2604 C   0  0  0  0  0  0  0  0  0  0  0  0
    0.2216   -6.9919   19.6392 C   0  0  0  0  0  0  0  0  0  0  0  0
   -0.6010   -7.3716   20.6412 C   0  0  0  0  0  0  0  0  0  0  0  0
   -1.7698   -8.1628   20.3687 C   0  0  0  0  0  0  0  0  0  0  0  0
   -2.7760   -8.5831   21.1295 N   0  0  0  0  0  0  0  0  0  0  0  0
   -8.3507  -10.2931   23.9740 H   0  0  0  0  0  0  0  0  0  0  0  0
   -7.5317  -10.9274   25.4075 H   0  0  0  0  0  0  0  0  0  0  0  0
   -6.5753  -10.3310   24.0409 H   0  0  0  0  0  0  0  0  0  0  0  0
   -8.5971  -15.9786   24.6834 H   0  0  0  0  0  0  0  0  0  0  0  0
   -8.5609  -17.5902   22.7581 H   0  0  0  0  0  0  0  0  0  0  0  0
   -7.9144  -16.7804   20.5131 H   0  0  0  0  0  0  0  0  0  0  0  0
   -7.2495  -14.4171   20.1271 H   0  0  0  0  0  0  0  0  0  0  0  0
   -7.7212  -11.5498   20.6447 H   0  0  0  0  0  0  0  0  0  0  0  0
   -7.1252  -10.4580   21.8609 H   0  0  0  0  0  0  0  0  0  0  0  0
   -5.0857   -9.6826   21.8029 H   0  0  0  0  0  0  0  0  0  0  0  0
   -3.3798   -9.9446   18.1680 H   0  0  0  0  0  0  0  0  0  0  0  0
   -1.3611   -8.5176   17.0130 H   0  0  0  0  0  0  0  0  0  0  0  0
    0.6210   -7.0375   17.4788 H   0  0  0  0  0  0  0  0  0  0  0  0
    1.1180   -6.4182   19.8479 H   0  0  0  0  0  0  0  0  0  0  0  0
   -0.3906   -7.1167   21.6736 H   0  0  0  0  0  0  0  0  0  0  0  0
  1  2  1  0
  2  3  2  0
  3  4  1  0
  4  5  2  0
  5  6  1  0
  6  7  2  0
  7  8  1  0
  8  9  2  0
  9 10  1  0
 10 11  1  0
 11 12  1  0
 12 13  2  0
 12 14  1  0
 14 15  1  0
 15 16  2  0
 16 17  1  0
 17 18  1  0
 18 19  2  0
 19 20  1  0
 20 21  2  0
 21 22  1  0
 22 23  2  0
 10  2  1  0
 23 15  1  0
  9  4  1  0
 22 17  1  0
  1 24  1  0
  1 25  1  0
  1 26  1  0
  5 27  1  0
  6 28  1  0
  7 29  1  0
  8 30  1  0
 11 31  1  0
 11 32  1  0
 14 33  1  0
 16 34  1  0
 18 35  1  0
 19 36  1  0
 20 37  1  0
 21 38  1  0
M  END
>  <Energy>  (158) 
34.515857353549578

>  <compound_id>  (158) 
54878

>  <target_id>  (158) 
1

>  <reference_id>  (158) 
103

>  <inspiration_ids>  (158) 
[94, 103]

>  <energy_score>  (158) 
5.698531525647809

>  <distance_score>  (158) 
15.658282342857447

>  <path>  (158) 
/opt/xchem-fragalysis-2/maxwin/BulkDock/SCRATCH/511025/C54878-P103/C54878-P103.minimised.mol

>  <scratch_subdir>  (158) 
/opt/xchem-fragalysis-2/maxwin/BulkDock/SCRATCH/511025/C54878-P103

>  <fragmenstein_runtime>  (158) 
23.993234395980835

>  <fragmenstein_outcome>  (158) 
too moved

>  <fragmenstein_mode>  (158) 
expansion

>  <fragmenstein_error>  (158) 


$$$$
C54879-P94
     RDKit          3D

 44 47  0  0  0  0  0  0  0  0999 V2000
    0.6558  -20.4967   23.5459 C   0  0  0  0  0  0  0  0  0  0  0  0
   -0.7397  -20.1048   23.8848 C   0  0  0  0  0  0  0  0  0  0  0  0
   -1.3669  -20.4730   24.9863 N   0  0  0  0  0  0  0  0  0  0  0  0
   -2.6439  -20.0147   24.8680 C   0  0  0  0  0  0  0  0  0  0  0  0
   -3.7139  -20.1763   25.7674 C   0  0  0  0  0  0  0  0  0  0  0  0
   -4.9537  -19.6299   25.4438 C   0  0  0  0  0  0  0  0  0  0  0  0
   -5.1318  -18.9713   24.2272 C   0  0  0  0  0  0  0  0  0  0  0  0
   -4.0719  -18.8073   23.3141 C   0  0  0  0  0  0  0  0  0  0  0  0
   -2.8110  -19.3210   23.6636 C   0  0  0  0  0  0  0  0  0  0  0  0
   -1.5465  -19.3401   23.0461 N   0  0  0  0  0  0  0  0  0  0  0  0
   -1.2220  -19.0099   21.6413 C   0  0  0  0  0  0  0  0  0  0  0  0
   -0.2852  -17.7810   21.0713 C   0  0  0  0  0  0  0  0  0  0  0  0
    1.2608  -18.0057   20.6328 C   0  0  0  0  0  0  0  0  0  0  0  0
    1.5927  -19.1601   20.5463 O   0  0  0  0  0  0  0  0  0  0  0  0
    2.0097  -16.7524   20.3072 N   0  0  0  0  0  0  0  0  0  0  0  0
    3.3734  -16.5485   19.6765 C   0  0  0  0  0  0  0  0  0  0  0  0
    4.0531  -15.1348   19.3465 C   0  0  0  0  0  0  0  0  0  0  0  0
    5.2511  -14.6345   19.8661 C   0  0  0  0  0  0  0  0  0  0  0  0
    5.6441  -13.5390   19.1157 N   0  0  0  0  0  0  0  0  0  0  0  0
    6.7669  -12.7033   19.2383 C   0  0  0  0  0  0  0  0  0  0  0  0
    6.9635  -11.7133   18.3466 C   0  0  0  0  0  0  0  0  0  0  0  0
    5.9955  -11.5420   17.2732 C   0  0  0  0  0  0  0  0  0  0  0  0
    4.9181  -12.3499   17.1616 C   0  0  0  0  0  0  0  0  0  0  0  0
    4.7013  -13.4128   18.1034 C   0  0  0  0  0  0  0  0  0  0  0  0
    3.7622  -14.3545   18.2078 N   0  0  0  0  0  0  0  0  0  0  0  0
    0.6725  -21.1504   22.6689 H   0  0  0  0  0  0  0  0  0  0  0  0
    1.2784  -19.6219   23.3490 H   0  0  0  0  0  0  0  0  0  0  0  0
    1.1077  -21.0447   24.3791 H   0  0  0  0  0  0  0  0  0  0  0  0
   -3.5533  -20.7017   26.7024 H   0  0  0  0  0  0  0  0  0  0  0  0
   -5.7685  -19.7125   26.1549 H   0  0  0  0  0  0  0  0  0  0  0  0
   -6.1055  -18.5556   23.9791 H   0  0  0  0  0  0  0  0  0  0  0  0
   -4.2291  -18.2822   22.3782 H   0  0  0  0  0  0  0  0  0  0  0  0
   -2.2014  -18.8553   21.1696 H   0  0  0  0  0  0  0  0  0  0  0  0
   -0.8367  -19.9410   21.2071 H   0  0  0  0  0  0  0  0  0  0  0  0
   -0.4285  -16.8659   21.6312 H   0  0  0  0  0  0  0  0  0  0  0  0
   -0.7424  -17.5546   20.0940 H   0  0  0  0  0  0  0  0  0  0  0  0
    1.4569  -15.9561   20.5798 H   0  0  0  0  0  0  0  0  0  0  0  0
    3.3353  -17.0986   18.7283 H   0  0  0  0  0  0  0  0  0  0  0  0
    4.0698  -17.0986   20.3214 H   0  0  0  0  0  0  0  0  0  0  0  0
    5.8832  -15.0180   20.6511 H   0  0  0  0  0  0  0  0  0  0  0  0
    7.4410  -12.9037   20.0610 H   0  0  0  0  0  0  0  0  0  0  0  0
    7.8236  -11.0548   18.3969 H   0  0  0  0  0  0  0  0  0  0  0  0
    6.1699  -10.7535   16.5475 H   0  0  0  0  0  0  0  0  0  0  0  0
    4.2003  -12.2301   16.3582 H   0  0  0  0  0  0  0  0  0  0  0  0
  1  2  1  0
  2  3  2  0
  3  4  1  0
  4  5  2  0
  5  6  1  0
  6  7  2  0
  7  8  1  0
  8  9  2  0
  9 10  1  0
 10 11  1  0
 11 12  1  0
 12 13  1  0
 13 14  2  0
 13 15  1  0
 15 16  1  0
 16 17  1  0
 17 18  2  0
 18 19  1  0
 19 20  1  0
 20 21  2  0
 21 22  1  0
 22 23  2  0
 23 24  1  0
 24 25  2  0
 10  2  1  0
 25 17  1  0
  9  4  1  0
 24 19  1  0
  1 26  1  0
  1 27  1  0
  1 28  1  0
  5 29  1  0
  6 30  1  0
  7 31  1  0
  8 32  1  0
 11 33  1  0
 11 34  1  0
 12 35  1  0
 12 36  1  0
 15 37  1  0
 16 38  1  0
 16 39  1  0
 18 40  1  0
 20 41  1  0
 21 42  1  0
 22 43  1  0
 23 44  1  0
M  END
>  <Energy>  (159) 
60.581658422716927

>  <compound_id>  (159) 
54879

>  <target_id>  (159) 
1

>  <reference_id>  (159) 
94

>  <inspiration_ids>  (159) 
[94, 103]

>  <energy_score>  (159) 
28.934292229872426

>  <distance_score>  (159) 
15.117663798862077

>  <path>  (159) 
/opt/xchem-fragalysis-2/maxwin/BulkDock/SCRATCH/511025/C54879-P94/C54879-P94.minimised.mol

>  <scratch_subdir>  (159) 
/opt/xchem-fragalysis-2/maxwin/BulkDock/SCRATCH/511025/C54879-P94

>  <fragmenstein_runtime>  (159) 
23.543436288833618

>  <fragmenstein_outcome>  (159) 
too moved

>  <fragmenstein_mode>  (159) 
expansion

>  <fragmenstein_error>  (159) 


$$$$
C54879-P103
     RDKit          3D

 44 47  0  0  0  0  0  0  0  0999 V2000
    1.0066  -17.3377   31.2681 C   0  0  0  0  0  0  0  0  0  0  0  0
    0.1813  -18.1210   30.3111 C   0  0  0  0  0  0  0  0  0  0  0  0
   -1.0574  -18.5088   30.5476 N   0  0  0  0  0  0  0  0  0  0  0  0
   -1.4319  -19.2682   29.4787 C   0  0  0  0  0  0  0  0  0  0  0  0
   -2.6534  -19.9437   29.2660 C   0  0  0  0  0  0  0  0  0  0  0  0
   -2.8262  -20.6885   28.0989 C   0  0  0  0  0  0  0  0  0  0  0  0
   -1.7942  -20.7552   27.1652 C   0  0  0  0  0  0  0  0  0  0  0  0
   -0.5651  -20.0888   27.3649 C   0  0  0  0  0  0  0  0  0  0  0  0
   -0.3946  -19.3357   28.5386 C   0  0  0  0  0  0  0  0  0  0  0  0
    0.6564  -18.5776   29.0817 N   0  0  0  0  0  0  0  0  0  0  0  0
    2.0969  -18.5577   28.6960 C   0  0  0  0  0  0  0  0  0  0  0  0
    2.8035  -17.3128   27.9175 C   0  0  0  0  0  0  0  0  0  0  0  0
    4.4010  -16.9531   28.1238 C   0  0  0  0  0  0  0  0  0  0  0  0
    4.9407  -17.6073   28.9811 O   0  0  0  0  0  0  0  0  0  0  0  0
    4.9431  -15.8402   27.2491 N   0  0  0  0  0  0  0  0  0  0  0  0
    6.3567  -15.2774   27.1139 C   0  0  0  0  0  0  0  0  0  0  0  0
    6.7873  -13.9840   26.2520 C   0  0  0  0  0  0  0  0  0  0  0  0
    6.9182  -12.6411   26.6271 C   0  0  0  0  0  0  0  0  0  0  0  0
    7.6177  -11.9678   25.6255 N   0  0  0  0  0  0  0  0  0  0  0  0
    8.0120  -10.6225   25.5263 C   0  0  0  0  0  0  0  0  0  0  0  0
    8.6813  -10.1977   24.4367 C   0  0  0  0  0  0  0  0  0  0  0  0
    8.9721  -11.1504   23.3778 C   0  0  0  0  0  0  0  0  0  0  0  0
    8.6199  -12.4480   23.4933 C   0  0  0  0  0  0  0  0  0  0  0  0
    7.9210  -12.9138   24.6590 C   0  0  0  0  0  0  0  0  0  0  0  0
    7.4694  -14.1111   25.0208 N   0  0  0  0  0  0  0  0  0  0  0  0
    1.7365  -16.7080   30.7541 H   0  0  0  0  0  0  0  0  0  0  0  0
    0.3686  -16.6870   31.8744 H   0  0  0  0  0  0  0  0  0  0  0  0
    1.5439  -18.0130   31.9408 H   0  0  0  0  0  0  0  0  0  0  0  0
   -3.4408  -19.8736   30.0106 H   0  0  0  0  0  0  0  0  0  0  0  0
   -3.7620  -21.2092   27.9242 H   0  0  0  0  0  0  0  0  0  0  0  0
   -1.9337  -21.3385   26.2569 H   0  0  0  0  0  0  0  0  0  0  0  0
    0.2243  -20.1608   26.6235 H   0  0  0  0  0  0  0  0  0  0  0  0
    2.2479  -19.4541   28.0815 H   0  0  0  0  0  0  0  0  0  0  0  0
    2.6524  -18.7395   29.6238 H   0  0  0  0  0  0  0  0  0  0  0  0
    2.7164  -17.5564   26.8592 H   0  0  0  0  0  0  0  0  0  0  0  0
    2.2389  -16.4183   28.1715 H   0  0  0  0  0  0  0  0  0  0  0  0
    4.2391  -15.5700   26.5803 H   0  0  0  0  0  0  0  0  0  0  0  0
    6.6982  -15.1021   28.1413 H   0  0  0  0  0  0  0  0  0  0  0  0
    6.9537  -16.1132   26.7287 H   0  0  0  0  0  0  0  0  0  0  0  0
    6.6316  -12.1311   27.5339 H   0  0  0  0  0  0  0  0  0  0  0  0
    7.7612   -9.9756   26.3555 H   0  0  0  0  0  0  0  0  0  0  0  0
    9.0099   -9.1709   24.3198 H   0  0  0  0  0  0  0  0  0  0  0  0
    9.4880  -10.7932   22.4920 H   0  0  0  0  0  0  0  0  0  0  0  0
    8.8386  -13.1665   22.7112 H   0  0  0  0  0  0  0  0  0  0  0  0
  1  2  1  0
  2  3  2  0
  3  4  1  0
  4  5  2  0
  5  6  1  0
  6  7  2  0
  7  8  1  0
  8  9  2  0
  9 10  1  0
 10 11  1  0
 11 12  1  0
 12 13  1  0
 13 14  2  0
 13 15  1  0
 15 16  1  0
 16 17  1  0
 17 18  2  0
 18 19  1  0
 19 20  1  0
 20 21  2  0
 21 22  1  0
 22 23  2  0
 23 24  1  0
 24 25  2  0
 10  2  1  0
 25 17  1  0
  9  4  1  0
 24 19  1  0
  1 26  1  0
  1 27  1  0
  1 28  1  0
  5 29  1  0
  6 30  1  0
  7 31  1  0
  8 32  1  0
 11 33  1  0
 11 34  1  0
 12 35  1  0
 12 36  1  0
 15 37  1  0
 16 38  1  0
 16 39  1  0
 18 40  1  0
 20 41  1  0
 21 42  1  0
 22 43  1  0
 23 44  1  0
M  END
>  <Energy>  (160) 
61.096363960048322

>  <compound_id>  (160) 
54879

>  <target_id>  (160) 
1

>  <reference_id>  (160) 
103

>  <inspiration_ids>  (160) 
[94, 103]

>  <energy_score>  (160) 
29.44899776720456

>  <distance_score>  (160) 
15.167354794602886

>  <path>  (160) 
/opt/xchem-fragalysis-2/maxwin/BulkDock/SCRATCH/511025/C54879-P103/C54879-P103.minimised.mol

>  <scratch_subdir>  (160) 
/opt/xchem-fragalysis-2/maxwin/BulkDock/SCRATCH/511025/C54879-P103

>  <fragmenstein_runtime>  (160) 
33.4849214553833

>  <fragmenstein_outcome>  (160) 
too moved

>  <fragmenstein_mode>  (160) 
expansion

>  <fragmenstein_error>  (160) 


$$$$
C54882-P94
     RDKit          3D

 36 39  0  0  0  0  0  0  0  0999 V2000
    6.5057   -0.8671   20.8111 C   0  0  0  0  0  0  0  0  0  0  0  0
    5.5990   -2.0521   20.8354 C   0  0  0  0  0  0  0  0  0  0  0  0
    4.3978   -2.1573   20.2939 N   0  0  0  0  0  0  0  0  0  0  0  0
    3.9009   -3.3968   20.6783 C   0  0  0  0  0  0  0  0  0  0  0  0
    2.6126   -3.9957   20.5164 C   0  0  0  0  0  0  0  0  0  0  0  0
    2.2912   -5.2421   21.1264 C   0  0  0  0  0  0  0  0  0  0  0  0
    0.8630   -5.7117   21.1192 N   0  0  0  0  0  0  0  0  0  0  0  0
    0.3959   -7.2610   21.7785 S   0  0  0  0  0  0  0  0  0  0  0  0
    0.6567   -7.2091   23.2024 O   0  0  0  0  0  0  0  0  0  0  0  0
    1.0107   -8.2368   20.9147 O   0  0  0  0  0  0  0  0  0  0  0  0
   -1.3857   -7.5985   21.6809 C   0  0  0  0  0  0  0  0  0  0  0  0
   -2.4612   -6.7597   21.9282 C   0  0  0  0  0  0  0  0  0  0  0  0
   -3.6645   -7.2935   21.5370 N   0  0  0  0  0  0  0  0  0  0  0  0
   -3.3786   -8.5057   21.1258 C   0  0  0  0  0  0  0  0  0  0  0  0
   -4.2077   -9.4832   20.4918 C   0  0  0  0  0  0  0  0  0  0  0  0
   -3.7005  -10.6749   20.1500 C   0  0  0  0  0  0  0  0  0  0  0  0
   -2.3329  -10.9959   20.4808 C   0  0  0  0  0  0  0  0  0  0  0  0
   -1.5492  -10.0744   21.0749 C   0  0  0  0  0  0  0  0  0  0  0  0
   -2.0261   -8.7976   21.3238 N   0  0  0  0  0  0  0  0  0  0  0  0
    3.3186   -5.8735   21.8392 C   0  0  0  0  0  0  0  0  0  0  0  0
    4.6307   -5.3436   21.9516 C   0  0  0  0  0  0  0  0  0  0  0  0
    4.8691   -4.0862   21.3953 C   0  0  0  0  0  0  0  0  0  0  0  0
    5.9452   -3.2320   21.4544 N   0  0  0  0  0  0  0  0  0  0  0  0
    6.8571   -0.6719   19.7985 H   0  0  0  0  0  0  0  0  0  0  0  0
    7.3768   -1.0162   21.4561 H   0  0  0  0  0  0  0  0  0  0  0  0
    5.9686    0.0183   21.1646 H   0  0  0  0  0  0  0  0  0  0  0  0
    1.8515   -3.4290   19.9901 H   0  0  0  0  0  0  0  0  0  0  0  0
    0.4450   -5.5954   20.1950 H   0  0  0  0  0  0  0  0  0  0  0  0
   -2.4085   -5.7493   22.3130 H   0  0  0  0  0  0  0  0  0  0  0  0
   -5.2289   -9.2181   20.2511 H   0  0  0  0  0  0  0  0  0  0  0  0
   -4.3063  -11.4095   19.6372 H   0  0  0  0  0  0  0  0  0  0  0  0
   -1.9596  -11.9697   20.2082 H   0  0  0  0  0  0  0  0  0  0  0  0
   -0.5125  -10.2394   21.3315 H   0  0  0  0  0  0  0  0  0  0  0  0
    3.1192   -6.8050   22.3649 H   0  0  0  0  0  0  0  0  0  0  0  0
    5.3838   -5.8669   22.5323 H   0  0  0  0  0  0  0  0  0  0  0  0
    6.8035   -3.4079   21.9558 H   0  0  0  0  0  0  0  0  0  0  0  0
  1  2  1  0
  2  3  2  0
  3  4  1  0
  4  5  2  0
  5  6  1  0
  6  7  1  0
  7  8  1  0
  8  9  2  0
  8 10  2  0
  8 11  1  0
 11 12  2  0
 12 13  1  0
 13 14  2  0
 14 15  1  0
 15 16  2  0
 16 17  1  0
 17 18  2  0
 18 19  1  0
  6 20  2  0
 20 21  1  0
 21 22  2  0
 22 23  1  0
 23  2  1  0
 22  4  1  0
 19 11  1  0
 19 14  1  0
  1 24  1  0
  1 25  1  0
  1 26  1  0
  5 27  1  0
  7 28  1  0
 12 29  1  0
 15 30  1  0
 16 31  1  0
 17 32  1  0
 18 33  1  0
 20 34  1  0
 21 35  1  0
 23 36  1  0
M  END
>  <Energy>  (161) 
-46.964071123877609

>  <compound_id>  (161) 
54882

>  <target_id>  (161) 
1

>  <reference_id>  (161) 
94

>  <inspiration_ids>  (161) 
[94, 103]

>  <energy_score>  (161) 
-35.66092533395448

>  <distance_score>  (161) 
15.425402653110563

>  <path>  (161) 
/opt/xchem-fragalysis-2/maxwin/BulkDock/SCRATCH/511025/C54882-P94/C54882-P94.minimised.mol

>  <scratch_subdir>  (161) 
/opt/xchem-fragalysis-2/maxwin/BulkDock/SCRATCH/511025/C54882-P94

>  <fragmenstein_runtime>  (161) 
28.9725284576416

>  <fragmenstein_outcome>  (161) 
too moved

>  <fragmenstein_mode>  (161) 
expansion

>  <fragmenstein_error>  (161) 


$$$$
C54882-P103
     RDKit          3D

 36 39  0  0  0  0  0  0  0  0999 V2000
    1.5827   -4.8645   19.1423 C   0  0  0  0  0  0  0  0  0  0  0  0
    0.9423   -6.0865   19.7296 C   0  0  0  0  0  0  0  0  0  0  0  0
    1.5691   -7.0327   20.3934 N   0  0  0  0  0  0  0  0  0  0  0  0
    0.6028   -7.9769   20.7021 C   0  0  0  0  0  0  0  0  0  0  0  0
    0.6858   -9.2481   21.3377 C   0  0  0  0  0  0  0  0  0  0  0  0
   -0.2896  -10.2944   21.6896 C   0  0  0  0  0  0  0  0  0  0  0  0
    0.1191  -11.8471   22.6577 N   0  0  0  0  0  0  0  0  0  0  0  0
   -0.4617  -13.9977   23.4040 S   0  0  0  0  0  0  0  0  0  0  0  0
   -0.7649  -14.7791   22.2618 O   0  0  0  0  0  0  0  0  0  0  0  0
    0.8310  -14.1667   23.8975 O   0  0  0  0  0  0  0  0  0  0  0  0
   -2.0622  -15.1111   24.7112 C   0  0  0  0  0  0  0  0  0  0  0  0
   -3.1595  -15.1832   23.8297 C   0  0  0  0  0  0  0  0  0  0  0  0
   -4.2521  -15.5143   23.2610 N   0  0  0  0  0  0  0  0  0  0  0  0
   -4.7776  -15.8570   24.3635 C   0  0  0  0  0  0  0  0  0  0  0  0
   -6.1278  -17.3611   23.7185 C   0  0  0  0  0  0  0  0  0  0  0  0
   -5.6081  -19.0366   23.9885 C   0  0  0  0  0  0  0  0  0  0  0  0
   -3.9110  -19.6219   24.8396 C   0  0  0  0  0  0  0  0  0  0  0  0
   -2.6600  -18.3402   25.3766 C   0  0  0  0  0  0  0  0  0  0  0  0
   -3.0692  -16.5045   25.0290 N   0  0  0  0  0  0  0  0  0  0  0  0
   -1.5233   -9.8357   21.1945 C   0  0  0  0  0  0  0  0  0  0  0  0
   -1.7195   -8.5209   20.5022 C   0  0  0  0  0  0  0  0  0  0  0  0
   -0.6414   -7.6182   20.2689 C   0  0  0  0  0  0  0  0  0  0  0  0
   -0.4118   -6.4009   19.6462 N   0  0  0  0  0  0  0  0  0  0  0  0
    1.4546   -4.8569   18.0559 H   0  0  0  0  0  0  0  0  0  0  0  0
    2.6536   -4.8486   19.3663 H   0  0  0  0  0  0  0  0  0  0  0  0
    1.1266   -3.9616   19.5590 H   0  0  0  0  0  0  0  0  0  0  0  0
    1.7302   -9.3669   21.4592 H   0  0  0  0  0  0  0  0  0  0  0  0
   -0.8734  -11.9224   22.4013 H   0  0  0  0  0  0  0  0  0  0  0  0
   -3.5903  -14.2928   23.6245 H   0  0  0  0  0  0  0  0  0  0  0  0
   -7.1537  -17.1536   23.3706 H   0  0  0  0  0  0  0  0  0  0  0  0
   -6.2296  -19.8756   23.6976 H   0  0  0  0  0  0  0  0  0  0  0  0
   -3.8281  -20.6782   25.0830 H   0  0  0  0  0  0  0  0  0  0  0  0
   -1.7792  -18.5374   25.9820 H   0  0  0  0  0  0  0  0  0  0  0  0
   -2.4151  -10.4563   21.2203 H   0  0  0  0  0  0  0  0  0  0  0  0
   -2.7175   -8.2799   20.1421 H   0  0  0  0  0  0  0  0  0  0  0  0
   -1.1111   -5.8437   19.1805 H   0  0  0  0  0  0  0  0  0  0  0  0
  1  2  1  0
  2  3  2  0
  3  4  1  0
  4  5  2  0
  5  6  1  0
  6  7  1  0
  7  8  1  0
  8  9  2  0
  8 10  2  0
  8 11  1  0
 11 12  2  0
 12 13  1  0
 13 14  2  0
 14 15  1  0
 15 16  2  0
 16 17  1  0
 17 18  2  0
 18 19  1  0
  6 20  2  0
 20 21  1  0
 21 22  2  0
 22 23  1  0
 23  2  1  0
 22  4  1  0
 19 11  1  0
 19 14  1  0
  1 24  1  0
  1 25  1  0
  1 26  1  0
  5 27  1  0
  7 28  1  0
 12 29  1  0
 15 30  1  0
 16 31  1  0
 17 32  1  0
 18 33  1  0
 20 34  1  0
 21 35  1  0
 23 36  1  0
M  END
>  <Energy>  (162) 
1173.4367115251027

>  <compound_id>  (162) 
54882

>  <target_id>  (162) 
1

>  <reference_id>  (162) 
103

>  <inspiration_ids>  (162) 
[94, 103]

>  <energy_score>  (162) 
1184.7398573150322

>  <distance_score>  (162) 
14.372424641289587

>  <path>  (162) 
/opt/xchem-fragalysis-2/maxwin/BulkDock/SCRATCH/511025/C54882-P103/C54882-P103.minimised.mol

>  <scratch_subdir>  (162) 
/opt/xchem-fragalysis-2/maxwin/BulkDock/SCRATCH/511025/C54882-P103

>  <fragmenstein_runtime>  (162) 
24.04641556739807

>  <fragmenstein_outcome>  (162) 
too moved

>  <fragmenstein_mode>  (162) 
expansion

>  <fragmenstein_error>  (162) 


$$$$
C54885-P94
     RDKit          3D

 40 43  0  0  0  0  0  0  0  0999 V2000
    9.7369  -11.2582   17.3270 C   0  0  0  0  0  0  0  0  0  0  0  0
    8.4188  -11.4305   17.9919 C   0  0  0  0  0  0  0  0  0  0  0  0
    8.0878  -11.2822   19.2625 N   0  0  0  0  0  0  0  0  0  0  0  0
    6.8154  -11.8434   19.4268 C   0  0  0  0  0  0  0  0  0  0  0  0
    5.9159  -12.0288   20.5966 C   0  0  0  0  0  0  0  0  0  0  0  0
    4.5741  -12.7522   20.7166 C   0  0  0  0  0  0  0  0  0  0  0  0
    3.3718  -12.9830   22.2919 C   0  0  0  0  0  0  0  0  0  0  0  0
    2.5356  -14.6044   22.9742 N   0  0  0  0  0  0  0  0  0  0  0  0
    0.7356  -15.0324   23.2306 C   0  0  0  0  0  0  0  0  0  0  0  0
   -0.0588  -14.2430   23.0641 O   0  0  0  0  0  0  0  0  0  0  0  0
    0.2954  -16.6560   23.5747 N   0  0  0  0  0  0  0  0  0  0  0  0
   -1.0229  -17.3205   23.6154 C   0  0  0  0  0  0  0  0  0  0  0  0
   -1.6858  -17.7301   24.9481 C   0  0  0  0  0  0  0  0  0  0  0  0
   -2.3455  -16.9342   25.8926 C   0  0  0  0  0  0  0  0  0  0  0  0
   -3.0109  -17.7981   26.7236 N   0  0  0  0  0  0  0  0  0  0  0  0
   -3.8561  -17.7127   27.8128 C   0  0  0  0  0  0  0  0  0  0  0  0
   -4.2346  -18.9274   28.2477 C   0  0  0  0  0  0  0  0  0  0  0  0
   -3.5467  -20.2444   27.2696 S   0  0  0  0  0  0  0  0  0  0  0  0
   -2.7313  -19.0579   26.2928 C   0  0  0  0  0  0  0  0  0  0  0  0
   -1.9561  -19.0880   25.2379 N   0  0  0  0  0  0  0  0  0  0  0  0
    4.4238  -13.1638   19.2839 C   0  0  0  0  0  0  0  0  0  0  0  0
    5.2263  -12.9826   18.0837 C   0  0  0  0  0  0  0  0  0  0  0  0
    6.3994  -12.2940   18.2015 C   0  0  0  0  0  0  0  0  0  0  0  0
    7.3546  -11.9303   17.2958 N   0  0  0  0  0  0  0  0  0  0  0  0
   10.0132  -12.1913   16.8212 H   0  0  0  0  0  0  0  0  0  0  0  0
   10.5242  -11.0674   18.0600 H   0  0  0  0  0  0  0  0  0  0  0  0
    9.6962  -10.4840   16.5577 H   0  0  0  0  0  0  0  0  0  0  0  0
    6.3987  -11.5144   21.4189 H   0  0  0  0  0  0  0  0  0  0  0  0
    3.7577  -12.6871   23.2474 H   0  0  0  0  0  0  0  0  0  0  0  0
    2.7365  -12.1568   22.5337 H   0  0  0  0  0  0  0  0  0  0  0  0
    3.0946  -15.3744   23.2416 H   0  0  0  0  0  0  0  0  0  0  0  0
    1.1198  -17.2135   23.6042 H   0  0  0  0  0  0  0  0  0  0  0  0
   -0.9226  -18.2190   22.9963 H   0  0  0  0  0  0  0  0  0  0  0  0
   -1.7168  -16.6454   23.1014 H   0  0  0  0  0  0  0  0  0  0  0  0
   -2.4299  -15.8607   25.9858 H   0  0  0  0  0  0  0  0  0  0  0  0
   -4.1230  -16.7553   28.2317 H   0  0  0  0  0  0  0  0  0  0  0  0
   -4.8614  -19.1109   29.1108 H   0  0  0  0  0  0  0  0  0  0  0  0
    3.6107  -13.8093   18.9295 H   0  0  0  0  0  0  0  0  0  0  0  0
    4.8807  -13.3909   17.1404 H   0  0  0  0  0  0  0  0  0  0  0  0
    7.3423  -12.1583   16.3130 H   0  0  0  0  0  0  0  0  0  0  0  0
  1  2  1  0
  2  3  2  0
  3  4  1  0
  4  5  2  0
  5  6  1  0
  6  7  1  0
  7  8  1  0
  8  9  1  0
  9 10  2  0
  9 11  1  0
 11 12  1  0
 12 13  1  0
 13 14  2  0
 14 15  1  0
 15 16  1  0
 16 17  2  0
 17 18  1  0
 18 19  1  0
 19 20  2  0
  6 21  2  0
 21 22  1  0
 22 23  2  0
 23 24  1  0
 24  2  1  0
 23  4  1  0
 20 13  1  0
 19 15  1  0
  1 25  1  0
  1 26  1  0
  1 27  1  0
  5 28  1  0
  7 29  1  0
  7 30  1  0
  8 31  1  0
 11 32  1  0
 12 33  1  0
 12 34  1  0
 14 35  1  0
 16 36  1  0
 17 37  1  0
 21 38  1  0
 22 39  1  0
 24 40  1  0
M  END
>  <Energy>  (163) 
281.25298774668494

>  <compound_id>  (163) 
54885

>  <target_id>  (163) 
1

>  <reference_id>  (163) 
94

>  <inspiration_ids>  (163) 
[94, 103]

>  <energy_score>  (163) 
286.9013120292943

>  <distance_score>  (163) 
13.751149690489964

>  <path>  (163) 
/opt/xchem-fragalysis-2/maxwin/BulkDock/SCRATCH/511025/C54885-P94/C54885-P94.minimised.mol

>  <scratch_subdir>  (163) 
/opt/xchem-fragalysis-2/maxwin/BulkDock/SCRATCH/511025/C54885-P94

>  <fragmenstein_runtime>  (163) 
20.04403591156006

>  <fragmenstein_outcome>  (163) 
too moved

>  <fragmenstein_mode>  (163) 
expansion

>  <fragmenstein_error>  (163) 


$$$$
C54885-P103
     RDKit          3D

 40 43  0  0  0  0  0  0  0  0999 V2000
    2.9813   -1.4349   21.7753 C   0  0  0  0  0  0  0  0  0  0  0  0
    2.1127   -2.6333   21.9920 C   0  0  0  0  0  0  0  0  0  0  0  0
    1.8771   -3.5823   21.1086 N   0  0  0  0  0  0  0  0  0  0  0  0
    1.2804   -4.5974   21.8285 C   0  0  0  0  0  0  0  0  0  0  0  0
    1.0803   -5.9794   21.5348 C   0  0  0  0  0  0  0  0  0  0  0  0
    0.5203   -7.1483   22.3458 C   0  0  0  0  0  0  0  0  0  0  0  0
   -0.3409   -8.4145   21.5801 C   0  0  0  0  0  0  0  0  0  0  0  0
   -0.0494   -9.7709   21.9299 N   0  0  0  0  0  0  0  0  0  0  0  0
   -0.8155  -10.9967   21.7449 C   0  0  0  0  0  0  0  0  0  0  0  0
   -1.8563  -11.1918   21.1780 O   0  0  0  0  0  0  0  0  0  0  0  0
    0.1905  -12.1740   22.7349 N   0  0  0  0  0  0  0  0  0  0  0  0
   -0.1728  -14.0552   23.2841 C   0  0  0  0  0  0  0  0  0  0  0  0
   -1.0861  -14.8662   24.5045 C   0  0  0  0  0  0  0  0  0  0  0  0
   -1.8535  -16.0431   24.3109 C   0  0  0  0  0  0  0  0  0  0  0  0
   -2.4856  -16.2938   25.5041 N   0  0  0  0  0  0  0  0  0  0  0  0
   -3.4115  -17.1937   26.0071 C   0  0  0  0  0  0  0  0  0  0  0  0
   -3.6999  -16.9458   27.2988 C   0  0  0  0  0  0  0  0  0  0  0  0
   -2.7922  -15.5534   27.9377 S   0  0  0  0  0  0  0  0  0  0  0  0
   -2.0466  -15.3495   26.3790 C   0  0  0  0  0  0  0  0  0  0  0  0
   -1.2087  -14.4876   25.8554 N   0  0  0  0  0  0  0  0  0  0  0  0
    0.3456   -6.6928   23.6724 C   0  0  0  0  0  0  0  0  0  0  0  0
    0.5723   -5.2519   24.0651 C   0  0  0  0  0  0  0  0  0  0  0  0
    1.0286   -4.2522   23.1391 C   0  0  0  0  0  0  0  0  0  0  0  0
    1.5059   -2.9519   23.2042 N   0  0  0  0  0  0  0  0  0  0  0  0
    3.4844   -1.4975   20.8057 H   0  0  0  0  0  0  0  0  0  0  0  0
    3.7444   -1.3695   22.5566 H   0  0  0  0  0  0  0  0  0  0  0  0
    2.3768   -0.5235   21.7954 H   0  0  0  0  0  0  0  0  0  0  0  0
    1.5235   -6.2766   20.6022 H   0  0  0  0  0  0  0  0  0  0  0  0
   -1.4105   -8.2716   21.7396 H   0  0  0  0  0  0  0  0  0  0  0  0
   -0.1000   -8.3729   20.5162 H   0  0  0  0  0  0  0  0  0  0  0  0
    0.7815   -9.9827   22.3641 H   0  0  0  0  0  0  0  0  0  0  0  0
    0.9879  -11.6869   23.1638 H   0  0  0  0  0  0  0  0  0  0  0  0
   -0.2624  -14.7135   22.4293 H   0  0  0  0  0  0  0  0  0  0  0  0
    0.7800  -14.3749   23.7083 H   0  0  0  0  0  0  0  0  0  0  0  0
   -2.0145  -16.6514   23.4329 H   0  0  0  0  0  0  0  0  0  0  0  0
   -3.8143  -17.9742   25.3819 H   0  0  0  0  0  0  0  0  0  0  0  0
   -4.3882  -17.5034   27.9203 H   0  0  0  0  0  0  0  0  0  0  0  0
   -0.1436   -7.3318   24.4035 H   0  0  0  0  0  0  0  0  0  0  0  0
    0.3970   -4.9843   25.1053 H   0  0  0  0  0  0  0  0  0  0  0  0
    1.5724   -2.4027   24.0466 H   0  0  0  0  0  0  0  0  0  0  0  0
  1  2  1  0
  2  3  2  0
  3  4  1  0
  4  5  2  0
  5  6  1  0
  6  7  1  0
  7  8  1  0
  8  9  1  0
  9 10  2  0
  9 11  1  0
 11 12  1  0
 12 13  1  0
 13 14  2  0
 14 15  1  0
 15 16  1  0
 16 17  2  0
 17 18  1  0
 18 19  1  0
 19 20  2  0
  6 21  2  0
 21 22  1  0
 22 23  2  0
 23 24  1  0
 24  2  1  0
 23  4  1  0
 20 13  1  0
 19 15  1  0
  1 25  1  0
  1 26  1  0
  1 27  1  0
  5 28  1  0
  7 29  1  0
  7 30  1  0
  8 31  1  0
 11 32  1  0
 12 33  1  0
 12 34  1  0
 14 35  1  0
 16 36  1  0
 17 37  1  0
 21 38  1  0
 22 39  1  0
 24 40  1  0
M  END
>  <Energy>  (164) 
166.52690421928099

>  <compound_id>  (164) 
54885

>  <target_id>  (164) 
1

>  <reference_id>  (164) 
103

>  <inspiration_ids>  (164) 
[94, 103]

>  <energy_score>  (164) 
172.17522850189124

>  <distance_score>  (164) 
14.842209263099841

>  <path>  (164) 
/opt/xchem-fragalysis-2/maxwin/BulkDock/SCRATCH/511025/C54885-P103/C54885-P103.minimised.mol

>  <scratch_subdir>  (164) 
/opt/xchem-fragalysis-2/maxwin/BulkDock/SCRATCH/511025/C54885-P103

>  <fragmenstein_runtime>  (164) 
17.76669478416443

>  <fragmenstein_outcome>  (164) 
too moved

>  <fragmenstein_mode>  (164) 
expansion

>  <fragmenstein_error>  (164) 


$$$$
C54889-P94
     RDKit          3D

 45 49  0  0  0  0  0  0  0  0999 V2000
    1.2487  -13.0387   14.0583 O   0  0  0  0  0  0  0  0  0  0  0  0
    2.0599  -12.9239   14.9315 C   0  0  0  0  0  0  0  0  0  0  0  0
    1.6851  -14.3620   16.4504 C   0  0  0  0  0  0  0  0  0  0  0  0
    2.4054  -16.2149   16.3241 C   0  0  0  0  0  0  0  0  0  0  0  0
    1.9002  -17.6645   16.6986 C   0  0  0  0  0  0  0  0  0  0  0  0
    2.5706  -18.6973   15.9554 N   0  0  0  0  0  0  0  0  0  0  0  0
    2.4886  -20.0679   15.8114 C   0  0  0  0  0  0  0  0  0  0  0  0
    3.4301  -20.5560   14.9840 C   0  0  0  0  0  0  0  0  0  0  0  0
    4.5236  -19.3147   14.3491 S   0  0  0  0  0  0  0  0  0  0  0  0
    3.6278  -18.1336   15.2640 C   0  0  0  0  0  0  0  0  0  0  0  0
    3.7573  -16.8376   15.5393 N   0  0  0  0  0  0  0  0  0  0  0  0
    3.3555  -11.8829   14.8656 N   0  0  0  0  0  0  0  0  0  0  0  0
    3.7596  -10.7918   13.7898 C   0  0  0  0  0  0  0  0  0  0  0  0
    4.2660   -9.4736   14.4265 C   0  0  0  0  0  0  0  0  0  0  0  0
    3.9633   -8.2121   13.9091 C   0  0  0  0  0  0  0  0  0  0  0  0
    4.2304   -7.0484   14.6411 C   0  0  0  0  0  0  0  0  0  0  0  0
    4.9551   -7.0921   15.8289 C   0  0  0  0  0  0  0  0  0  0  0  0
    5.4031   -8.3156   16.2882 C   0  0  0  0  0  0  0  0  0  0  0  0
    5.0530   -9.4849   15.5979 C   0  0  0  0  0  0  0  0  0  0  0  0
    2.4416  -10.7315   12.6904 C   0  0  0  0  0  0  0  0  0  0  0  0
    1.3278   -9.8722   12.8057 C   0  0  0  0  0  0  0  0  0  0  0  0
   -0.0305  -10.2798   12.5909 C   0  0  0  0  0  0  0  0  0  0  0  0
   -0.2287  -11.5700   12.1191 C   0  0  0  0  0  0  0  0  0  0  0  0
   -1.3231  -12.3695   11.9245 N   0  0  0  0  0  0  0  0  0  0  0  0
   -0.8984  -13.5319   11.3520 C   0  0  0  0  0  0  0  0  0  0  0  0
    0.3999  -13.5347   11.1604 N   0  0  0  0  0  0  0  0  0  0  0  0
    0.8430  -12.3295   11.6676 C   0  0  0  0  0  0  0  0  0  0  0  0
    2.1758  -11.8303   11.8477 C   0  0  0  0  0  0  0  0  0  0  0  0
    1.8719  -14.1532   17.5272 H   0  0  0  0  0  0  0  0  0  0  0  0
    0.6367  -14.4448   16.3897 H   0  0  0  0  0  0  0  0  0  0  0  0
    1.2870  -18.0214   17.5170 H   0  0  0  0  0  0  0  0  0  0  0  0
    1.7244  -20.6268   16.3093 H   0  0  0  0  0  0  0  0  0  0  0  0
    3.5375  -21.5964   14.7104 H   0  0  0  0  0  0  0  0  0  0  0  0
    3.8390  -11.9121   15.7568 H   0  0  0  0  0  0  0  0  0  0  0  0
    4.5988  -11.1999   13.2149 H   0  0  0  0  0  0  0  0  0  0  0  0
    3.4515   -8.1070   12.9568 H   0  0  0  0  0  0  0  0  0  0  0  0
    3.8560   -6.0983   14.2663 H   0  0  0  0  0  0  0  0  0  0  0  0
    5.1593   -6.1827   16.3825 H   0  0  0  0  0  0  0  0  0  0  0  0
    5.9585   -8.3889   17.2181 H   0  0  0  0  0  0  0  0  0  0  0  0
    5.3519  -10.4244   16.0434 H   0  0  0  0  0  0  0  0  0  0  0  0
    1.4598   -8.8748   13.2196 H   0  0  0  0  0  0  0  0  0  0  0  0
   -0.8545   -9.6258   12.8484 H   0  0  0  0  0  0  0  0  0  0  0  0
   -2.2814  -12.1403   12.1246 H   0  0  0  0  0  0  0  0  0  0  0  0
   -1.5775  -14.3185   11.0608 H   0  0  0  0  0  0  0  0  0  0  0  0
    2.9889  -12.4162   11.4449 H   0  0  0  0  0  0  0  0  0  0  0  0
  1  2  2  0
  2  3  1  0
  3  4  1  0
  4  5  2  0
  5  6  1  0
  6  7  1  0
  7  8  2  0
  8  9  1  0
  9 10  1  0
 10 11  2  0
  2 12  1  0
 12 13  1  0
 13 14  1  0
 14 15  2  0
 15 16  1  0
 16 17  2  0
 17 18  1  0
 18 19  2  0
 13 20  1  0
 20 21  2  0
 21 22  1  0
 22 23  2  0
 23 24  1  0
 24 25  1  0
 25 26  2  0
 26 27  1  0
 27 28  2  0
 11  4  1  0
 19 14  1  0
 28 20  1  0
 10  6  1  0
 27 23  1  0
  3 29  1  0
  3 30  1  0
  5 31  1  0
  7 32  1  0
  8 33  1  0
 12 34  1  0
 13 35  1  0
 15 36  1  0
 16 37  1  0
 17 38  1  0
 18 39  1  0
 19 40  1  0
 21 41  1  0
 22 42  1  0
 24 43  1  0
 25 44  1  0
 28 45  1  0
M  END
>  <Energy>  (165) 
372.08084043314472

>  <compound_id>  (165) 
54889

>  <target_id>  (165) 
1

>  <reference_id>  (165) 
94

>  <inspiration_ids>  (165) 
[94, 103]

>  <energy_score>  (165) 
263.0383078161192

>  <distance_score>  (165) 
20.535058846924

>  <path>  (165) 
/opt/xchem-fragalysis-2/maxwin/BulkDock/SCRATCH/511025/C54889-P94/C54889-P94.minimised.mol

>  <scratch_subdir>  (165) 
/opt/xchem-fragalysis-2/maxwin/BulkDock/SCRATCH/511025/C54889-P94

>  <fragmenstein_runtime>  (165) 
54.314966678619385

>  <fragmenstein_outcome>  (165) 
too moved

>  <fragmenstein_mode>  (165) 
expansion

>  <fragmenstein_error>  (165) 


$$$$
C54889-P103
     RDKit          3D

 45 49  0  0  0  0  0  0  0  0999 V2000
   -1.1989  -12.8135   17.3353 O   0  0  0  0  0  0  0  0  0  0  0  0
   -2.3239  -13.0278   17.0143 C   0  0  0  0  0  0  0  0  0  0  0  0
   -3.6341  -11.9974   17.7448 C   0  0  0  0  0  0  0  0  0  0  0  0
   -3.1933  -11.3075   18.9786 C   0  0  0  0  0  0  0  0  0  0  0  0
   -3.2856  -11.5985   20.3427 C   0  0  0  0  0  0  0  0  0  0  0  0
   -2.2648  -12.7327   20.5402 N   0  0  0  0  0  0  0  0  0  0  0  0
   -2.2087  -14.3498   20.7996 C   0  0  0  0  0  0  0  0  0  0  0  0
   -2.1702  -15.4165   19.9955 C   0  0  0  0  0  0  0  0  0  0  0  0
   -1.7996  -14.7362   18.5787 S   0  0  0  0  0  0  0  0  0  0  0  0
   -1.9601  -12.6061   19.2934 C   0  0  0  0  0  0  0  0  0  0  0  0
   -1.9094  -11.3721   18.8681 N   0  0  0  0  0  0  0  0  0  0  0  0
   -2.8394  -13.8656   16.0633 N   0  0  0  0  0  0  0  0  0  0  0  0
   -2.2023  -14.6654   15.0460 C   0  0  0  0  0  0  0  0  0  0  0  0
   -0.9280  -13.8325   13.6255 C   0  0  0  0  0  0  0  0  0  0  0  0
   -0.0860  -14.4854   12.6107 C   0  0  0  0  0  0  0  0  0  0  0  0
    0.6390  -13.9228   11.4784 C   0  0  0  0  0  0  0  0  0  0  0  0
    0.8184  -12.5741   11.2767 C   0  0  0  0  0  0  0  0  0  0  0  0
    0.1388  -11.7770   12.1335 C   0  0  0  0  0  0  0  0  0  0  0  0
   -0.7121  -12.3759   13.1271 C   0  0  0  0  0  0  0  0  0  0  0  0
   -4.0118  -15.0988   14.7327 C   0  0  0  0  0  0  0  0  0  0  0  0
   -4.8585  -14.3327   13.9203 C   0  0  0  0  0  0  0  0  0  0  0  0
   -6.2403  -14.1253   14.2427 C   0  0  0  0  0  0  0  0  0  0  0  0
   -6.7693  -14.6168   15.4498 C   0  0  0  0  0  0  0  0  0  0  0  0
   -8.0062  -14.5440   16.0562 N   0  0  0  0  0  0  0  0  0  0  0  0
   -7.9611  -15.2381   17.2315 C   0  0  0  0  0  0  0  0  0  0  0  0
   -6.7672  -15.7462   17.4152 N   0  0  0  0  0  0  0  0  0  0  0  0
   -6.0074  -15.3781   16.3077 C   0  0  0  0  0  0  0  0  0  0  0  0
   -4.6769  -15.7099   15.9046 C   0  0  0  0  0  0  0  0  0  0  0  0
   -4.6863  -12.0734   17.4227 H   0  0  0  0  0  0  0  0  0  0  0  0
   -3.5263  -11.1194   17.0778 H   0  0  0  0  0  0  0  0  0  0  0  0
   -3.1662  -10.8462   21.1108 H   0  0  0  0  0  0  0  0  0  0  0  0
   -1.8015  -14.7046   21.7072 H   0  0  0  0  0  0  0  0  0  0  0  0
   -2.0041  -16.4669   20.1725 H   0  0  0  0  0  0  0  0  0  0  0  0
   -3.8566  -13.8532   16.1344 H   0  0  0  0  0  0  0  0  0  0  0  0
   -2.2032  -15.6986   15.1079 H   0  0  0  0  0  0  0  0  0  0  0  0
    0.0494  -15.5544   12.5333 H   0  0  0  0  0  0  0  0  0  0  0  0
    1.1225  -14.6277   10.7998 H   0  0  0  0  0  0  0  0  0  0  0  0
    1.4188  -12.1873   10.4650 H   0  0  0  0  0  0  0  0  0  0  0  0
    0.1551  -10.6972   12.0173 H   0  0  0  0  0  0  0  0  0  0  0  0
   -1.2593  -11.5156   13.4841 H   0  0  0  0  0  0  0  0  0  0  0  0
   -4.4345  -13.8230   13.0554 H   0  0  0  0  0  0  0  0  0  0  0  0
   -6.8494  -13.5233   13.5727 H   0  0  0  0  0  0  0  0  0  0  0  0
   -8.8118  -14.0661   15.6806 H   0  0  0  0  0  0  0  0  0  0  0  0
   -8.8112  -15.3334   17.8924 H   0  0  0  0  0  0  0  0  0  0  0  0
   -4.1118  -16.3114   16.5977 H   0  0  0  0  0  0  0  0  0  0  0  0
  1  2  2  0
  2  3  1  0
  3  4  1  0
  4  5  2  0
  5  6  1  0
  6  7  1  0
  7  8  2  0
  8  9  1  0
  9 10  1  0
 10 11  2  0
  2 12  1  0
 12 13  1  0
 13 14  1  0
 14 15  2  0
 15 16  1  0
 16 17  2  0
 17 18  1  0
 18 19  2  0
 13 20  1  0
 20 21  2  0
 21 22  1  0
 22 23  2  0
 23 24  1  0
 24 25  1  0
 25 26  2  0
 26 27  1  0
 27 28  2  0
 11  4  1  0
 19 14  1  0
 28 20  1  0
 10  6  1  0
 27 23  1  0
  3 29  1  0
  3 30  1  0
  5 31  1  0
  7 32  1  0
  8 33  1  0
 12 34  1  0
 13 35  1  0
 15 36  1  0
 16 37  1  0
 17 38  1  0
 18 39  1  0
 19 40  1  0
 21 41  1  0
 22 42  1  0
 24 43  1  0
 25 44  1  0
 28 45  1  0
M  END
>  <Energy>  (166) 
705.32777219897287

>  <compound_id>  (166) 
54889

>  <target_id>  (166) 
1

>  <reference_id>  (166) 
103

>  <inspiration_ids>  (166) 
[94, 103]

>  <energy_score>  (166) 
596.2852395819618

>  <distance_score>  (166) 
18.337377297759307

>  <path>  (166) 
/opt/xchem-fragalysis-2/maxwin/BulkDock/SCRATCH/511025/C54889-P103/C54889-P103.minimised.mol

>  <scratch_subdir>  (166) 
/opt/xchem-fragalysis-2/maxwin/BulkDock/SCRATCH/511025/C54889-P103

>  <fragmenstein_runtime>  (166) 
39.010518312454224

>  <fragmenstein_outcome>  (166) 
too moved

>  <fragmenstein_mode>  (166) 
expansion

>  <fragmenstein_error>  (166) 


$$$$
C54890-P94
     RDKit          3D

 39 43  0  0  0  0  0  0  0  0999 V2000
   -0.1676  -14.3546   22.5795 O   0  0  0  0  0  0  0  0  0  0  0  0
    0.1645  -14.0617   23.6949 C   0  0  0  0  0  0  0  0  0  0  0  0
    1.8882  -13.1801   23.9279 N   0  0  0  0  0  0  0  0  0  0  0  0
    3.1807  -12.5455   22.6634 C   0  0  0  0  0  0  0  0  0  0  0  0
    4.3178  -11.3358   22.5528 C   0  0  0  0  0  0  0  0  0  0  0  0
    5.7895  -10.7964   21.9675 C   0  0  0  0  0  0  0  0  0  0  0  0
    6.1847  -11.4599   20.7747 C   0  0  0  0  0  0  0  0  0  0  0  0
    7.4789  -11.0100   20.2456 C   0  0  0  0  0  0  0  0  0  0  0  0
    7.7288   -9.6439   20.0224 C   0  0  0  0  0  0  0  0  0  0  0  0
    8.9366   -9.4355   20.6308 N   0  0  0  0  0  0  0  0  0  0  0  0
    9.6099   -8.3665   21.1836 C   0  0  0  0  0  0  0  0  0  0  0  0
   10.7149   -8.7706   21.8359 C   0  0  0  0  0  0  0  0  0  0  0  0
   10.9653  -10.5263   21.7553 S   0  0  0  0  0  0  0  0  0  0  0  0
    9.4769  -10.6632   20.8671 C   0  0  0  0  0  0  0  0  0  0  0  0
    8.6508  -11.6468   20.6389 N   0  0  0  0  0  0  0  0  0  0  0  0
    5.1913  -12.5580   20.3848 C   0  0  0  0  0  0  0  0  0  0  0  0
    3.7359  -13.0254   21.2759 C   0  0  0  0  0  0  0  0  0  0  0  0
   -1.3501  -14.4759   24.9764 C   0  0  0  0  0  0  0  0  0  0  0  0
   -2.2544  -15.5293   24.7271 C   0  0  0  0  0  0  0  0  0  0  0  0
   -2.9673  -16.5937   25.7903 C   0  0  0  0  0  0  0  0  0  0  0  0
   -3.3867  -16.3532   27.0741 C   0  0  0  0  0  0  0  0  0  0  0  0
   -3.9630  -16.9859   28.1288 N   0  0  0  0  0  0  0  0  0  0  0  0
   -3.8063  -16.1442   29.2002 C   0  0  0  0  0  0  0  0  0  0  0  0
   -3.0890  -15.0809   28.8746 N   0  0  0  0  0  0  0  0  0  0  0  0
   -2.8634  -15.1859   27.5205 C   0  0  0  0  0  0  0  0  0  0  0  0
   -1.9117  -14.5211   26.5016 C   0  0  0  0  0  0  0  0  0  0  0  0
    1.9909  -12.9176   24.9059 H   0  0  0  0  0  0  0  0  0  0  0  0
    4.2102  -11.2872   21.5469 H   0  0  0  0  0  0  0  0  0  0  0  0
    6.3618  -10.0838   22.5466 H   0  0  0  0  0  0  0  0  0  0  0  0
    7.0658   -8.8238   19.7961 H   0  0  0  0  0  0  0  0  0  0  0  0
    9.2246   -7.3622   21.1080 H   0  0  0  0  0  0  0  0  0  0  0  0
   11.4029   -8.1283   22.3706 H   0  0  0  0  0  0  0  0  0  0  0  0
    5.3434  -13.1019   19.4496 H   0  0  0  0  0  0  0  0  0  0  0  0
    3.0995  -13.7435   20.8149 H   0  0  0  0  0  0  0  0  0  0  0  0
   -2.7361  -15.4823   23.7699 H   0  0  0  0  0  0  0  0  0  0  0  0
   -2.6507  -17.6401   25.6399 H   0  0  0  0  0  0  0  0  0  0  0  0
   -4.4112  -17.8922   28.1483 H   0  0  0  0  0  0  0  0  0  0  0  0
   -4.1961  -16.3738   30.1842 H   0  0  0  0  0  0  0  0  0  0  0  0
   -1.1562  -14.4109   27.3046 H   0  0  0  0  0  0  0  0  0  0  0  0
  1  2  2  0
  2  3  1  0
  3  4  1  0
  4  5  2  0
  5  6  1  0
  6  7  2  0
  7  8  1  0
  8  9  2  0
  9 10  1  0
 10 11  1  0
 11 12  2  0
 12 13  1  0
 13 14  1  0
 14 15  2  0
  7 16  1  0
 16 17  2  0
  2 18  1  0
 18 19  2  0
 19 20  1  0
 20 21  2  0
 21 22  1  0
 22 23  1  0
 23 24  2  0
 24 25  1  0
 25 26  2  0
 17  4  1  0
 26 18  1  0
 15  8  1  0
 25 21  1  0
 14 10  1  0
  3 27  1  0
  5 28  1  0
  6 29  1  0
  9 30  1  0
 11 31  1  0
 12 32  1  0
 16 33  1  0
 17 34  1  0
 19 35  1  0
 20 36  1  0
 22 37  1  0
 23 38  1  0
 26 39  1  0
M  END
>  <Energy>  (167) 
740.51067319281503

>  <compound_id>  (167) 
54890

>  <target_id>  (167) 
1

>  <reference_id>  (167) 
94

>  <inspiration_ids>  (167) 
[94, 103]

>  <energy_score>  (167) 
658.694353625013

>  <distance_score>  (167) 
13.164925119413287

>  <path>  (167) 
/opt/xchem-fragalysis-2/maxwin/BulkDock/SCRATCH/511025/C54890-P94/C54890-P94.minimised.mol

>  <scratch_subdir>  (167) 
/opt/xchem-fragalysis-2/maxwin/BulkDock/SCRATCH/511025/C54890-P94

>  <fragmenstein_runtime>  (167) 
18.725901126861572

>  <fragmenstein_outcome>  (167) 
too moved

>  <fragmenstein_mode>  (167) 
expansion

>  <fragmenstein_error>  (167) 


$$$$
C54890-P103
     RDKit          3D

 39 43  0  0  0  0  0  0  0  0999 V2000
   -0.6535  -14.2879   23.3960 O   0  0  0  0  0  0  0  0  0  0  0  0
   -0.4612  -14.1178   24.5675 C   0  0  0  0  0  0  0  0  0  0  0  0
    1.2149  -13.5502   25.2610 N   0  0  0  0  0  0  0  0  0  0  0  0
    2.9015  -13.2834   24.3887 C   0  0  0  0  0  0  0  0  0  0  0  0
    3.2000  -12.2826   23.0893 C   0  0  0  0  0  0  0  0  0  0  0  0
    4.6113  -11.2443   22.5945 C   0  0  0  0  0  0  0  0  0  0  0  0
    5.9753  -11.3226   23.7322 C   0  0  0  0  0  0  0  0  0  0  0  0
    7.1082  -10.3764   23.5296 C   0  0  0  0  0  0  0  0  0  0  0  0
    7.4358   -9.7134   22.3426 C   0  0  0  0  0  0  0  0  0  0  0  0
    8.4044   -8.8108   22.6876 N   0  0  0  0  0  0  0  0  0  0  0  0
    9.1308   -7.8079   22.0774 C   0  0  0  0  0  0  0  0  0  0  0  0
    9.9755   -7.2208   22.9433 C   0  0  0  0  0  0  0  0  0  0  0  0
    9.8841   -7.9145   24.5760 S   0  0  0  0  0  0  0  0  0  0  0  0
    8.6596   -9.0095   24.0109 C   0  0  0  0  0  0  0  0  0  0  0  0
    7.9146   -9.9276   24.5659 N   0  0  0  0  0  0  0  0  0  0  0  0
    5.8363  -12.4363   25.1016 C   0  0  0  0  0  0  0  0  0  0  0  0
    4.4359  -13.6387   25.2807 C   0  0  0  0  0  0  0  0  0  0  0  0
   -2.0618  -14.6764   25.6031 C   0  0  0  0  0  0  0  0  0  0  0  0
   -2.8766  -15.7157   24.9889 C   0  0  0  0  0  0  0  0  0  0  0  0
   -3.9283  -16.6050   25.6301 C   0  0  0  0  0  0  0  0  0  0  0  0
   -4.0364  -16.7150   27.0044 C   0  0  0  0  0  0  0  0  0  0  0  0
   -4.8275  -17.4308   27.8674 N   0  0  0  0  0  0  0  0  0  0  0  0
   -4.4058  -17.1428   29.1368 C   0  0  0  0  0  0  0  0  0  0  0  0
   -3.4374  -16.2478   29.1235 N   0  0  0  0  0  0  0  0  0  0  0  0
   -3.2340  -15.9306   27.7960 C   0  0  0  0  0  0  0  0  0  0  0  0
   -2.3204  -15.0103   27.1343 C   0  0  0  0  0  0  0  0  0  0  0  0
    1.1791  -13.5529   26.2670 H   0  0  0  0  0  0  0  0  0  0  0  0
    2.2320  -11.8230   22.9909 H   0  0  0  0  0  0  0  0  0  0  0  0
    4.9211  -11.1299   21.5587 H   0  0  0  0  0  0  0  0  0  0  0  0
    7.0616   -9.7905   21.3345 H   0  0  0  0  0  0  0  0  0  0  0  0
    8.9905   -7.5772   21.0349 H   0  0  0  0  0  0  0  0  0  0  0  0
   10.6547   -6.4093   22.7131 H   0  0  0  0  0  0  0  0  0  0  0  0
    6.6554  -12.4753   25.8227 H   0  0  0  0  0  0  0  0  0  0  0  0
    4.4405  -14.3065   26.1461 H   0  0  0  0  0  0  0  0  0  0  0  0
   -3.0501  -15.5443   23.9343 H   0  0  0  0  0  0  0  0  0  0  0  0
   -4.7112  -17.0303   25.0047 H   0  0  0  0  0  0  0  0  0  0  0  0
   -5.5484  -18.0938   27.6244 H   0  0  0  0  0  0  0  0  0  0  0  0
   -4.8350  -17.6091   30.0159 H   0  0  0  0  0  0  0  0  0  0  0  0
   -1.5873  -14.7125   27.8863 H   0  0  0  0  0  0  0  0  0  0  0  0
  1  2  2  0
  2  3  1  0
  3  4  1  0
  4  5  2  0
  5  6  1  0
  6  7  2  0
  7  8  1  0
  8  9  2  0
  9 10  1  0
 10 11  1  0
 11 12  2  0
 12 13  1  0
 13 14  1  0
 14 15  2  0
  7 16  1  0
 16 17  2  0
  2 18  1  0
 18 19  2  0
 19 20  1  0
 20 21  2  0
 21 22  1  0
 22 23  1  0
 23 24  2  0
 24 25  1  0
 25 26  2  0
 17  4  1  0
 26 18  1  0
 15  8  1  0
 25 21  1  0
 14 10  1  0
  3 27  1  0
  5 28  1  0
  6 29  1  0
  9 30  1  0
 11 31  1  0
 12 32  1  0
 16 33  1  0
 17 34  1  0
 19 35  1  0
 20 36  1  0
 22 37  1  0
 23 38  1  0
 26 39  1  0
M  END
>  <Energy>  (168) 
589.73082196665598

>  <compound_id>  (168) 
54890

>  <target_id>  (168) 
1

>  <reference_id>  (168) 
103

>  <inspiration_ids>  (168) 
[94, 103]

>  <energy_score>  (168) 
507.9145023988551

>  <distance_score>  (168) 
13.451087727976468

>  <path>  (168) 
/opt/xchem-fragalysis-2/maxwin/BulkDock/SCRATCH/511025/C54890-P103/C54890-P103.minimised.mol

>  <scratch_subdir>  (168) 
/opt/xchem-fragalysis-2/maxwin/BulkDock/SCRATCH/511025/C54890-P103

>  <fragmenstein_runtime>  (168) 
23.922125816345215

>  <fragmenstein_outcome>  (168) 
too moved

>  <fragmenstein_mode>  (168) 
expansion

>  <fragmenstein_error>  (168) 


$$$$
C77323-P52
     RDKit          3D

 41 43  0  0  0  0  0  0  0  0999 V2000
    6.3213  -10.9674   22.9485 C   0  0  0  0  0  0  0  0  0  0  0  0
    7.1088  -11.1256   24.2527 C   0  0  0  0  0  0  0  0  0  0  0  0
    6.7660  -10.0450   25.2804 C   0  0  0  0  0  0  0  0  0  0  0  0
    8.5290  -10.9455   23.8298 O   0  0  0  0  0  0  0  0  0  0  0  0
    9.1666   -9.8474   23.2935 C   0  0  0  0  0  0  0  0  0  0  0  0
   10.3816  -10.1394   22.6472 C   0  0  0  0  0  0  0  0  0  0  0  0
   11.2156   -9.1349   22.1246 C   0  0  0  0  0  0  0  0  0  0  0  0
   10.8588   -7.7998   22.2592 C   0  0  0  0  0  0  0  0  0  0  0  0
    9.6670   -7.4873   22.9071 C   0  0  0  0  0  0  0  0  0  0  0  0
    8.8143   -8.5025   23.3918 C   0  0  0  0  0  0  0  0  0  0  0  0
    6.8184  -12.6652   24.9506 C   0  0  0  0  0  0  0  0  0  0  0  0
    7.7395  -13.4823   25.0271 O   0  0  0  0  0  0  0  0  0  0  0  0
    5.5294  -13.0094   25.4822 O   0  0  0  0  0  0  0  0  0  0  0  0
    5.4558  -14.4271   26.1031 C   0  0  0  0  0  0  0  0  0  0  0  0
    4.0719  -15.0680   26.7137 C   0  0  0  0  0  0  0  0  0  0  0  0
    3.3534  -16.0826   26.2034 N   0  0  0  0  0  0  0  0  0  0  0  0
    2.4154  -16.5021   27.1599 C   0  0  0  0  0  0  0  0  0  0  0  0
    1.4218  -17.5148   27.1292 C   0  0  0  0  0  0  0  0  0  0  0  0
    0.5700  -17.7091   28.2323 C   0  0  0  0  0  0  0  0  0  0  0  0
    0.7120  -16.9144   29.3662 C   0  0  0  0  0  0  0  0  0  0  0  0
    1.7090  -15.9216   29.4287 C   0  0  0  0  0  0  0  0  0  0  0  0
    2.5458  -15.7423   28.3065 C   0  0  0  0  0  0  0  0  0  0  0  0
    3.6372  -14.9203   28.0371 N   0  0  0  0  0  0  0  0  0  0  0  0
    5.2781  -11.2612   23.0851 H   0  0  0  0  0  0  0  0  0  0  0  0
    6.3513   -9.9445   22.5608 H   0  0  0  0  0  0  0  0  0  0  0  0
    6.7377  -11.6178   22.1703 H   0  0  0  0  0  0  0  0  0  0  0  0
    5.9701  -10.3840   25.9513 H   0  0  0  0  0  0  0  0  0  0  0  0
    7.6310   -9.8035   25.9074 H   0  0  0  0  0  0  0  0  0  0  0  0
    6.4028   -9.1230   24.8254 H   0  0  0  0  0  0  0  0  0  0  0  0
   10.6951  -11.1792   22.5608 H   0  0  0  0  0  0  0  0  0  0  0  0
   12.1468   -9.4093   21.6350 H   0  0  0  0  0  0  0  0  0  0  0  0
   11.5140   -7.0172   21.8875 H   0  0  0  0  0  0  0  0  0  0  0  0
    9.4037   -6.4449   23.0715 H   0  0  0  0  0  0  0  0  0  0  0  0
    7.9140   -8.1823   23.8937 H   0  0  0  0  0  0  0  0  0  0  0  0
    5.7746  -15.1182   25.3139 H   0  0  0  0  0  0  0  0  0  0  0  0
    6.1830  -14.4347   26.9233 H   0  0  0  0  0  0  0  0  0  0  0  0
    1.3254  -18.1297   26.2408 H   0  0  0  0  0  0  0  0  0  0  0  0
   -0.1927  -18.4819   28.1968 H   0  0  0  0  0  0  0  0  0  0  0  0
    0.0555  -17.0674   30.2201 H   0  0  0  0  0  0  0  0  0  0  0  0
    1.8305  -15.3169   30.3221 H   0  0  0  0  0  0  0  0  0  0  0  0
    4.0765  -14.3153   28.7132 H   0  0  0  0  0  0  0  0  0  0  0  0
  1  2  1  0
  2  3  1  0
  2  4  1  0
  4  5  1  0
  5  6  2  0
  6  7  1  0
  7  8  2  0
  8  9  1  0
  9 10  2  0
  2 11  1  0
 11 12  2  0
 11 13  1  0
 13 14  1  0
 14 15  1  0
 15 16  2  0
 16 17  1  0
 17 18  2  0
 18 19  1  0
 19 20  2  0
 20 21  1  0
 21 22  2  0
 22 23  1  0
 10  5  1  0
 23 15  1  0
 22 17  1  0
  1 24  1  0
  1 25  1  0
  1 26  1  0
  3 27  1  0
  3 28  1  0
  3 29  1  0
  6 30  1  0
  7 31  1  0
  8 32  1  0
  9 33  1  0
 10 34  1  0
 14 35  1  0
 14 36  1  0
 18 37  1  0
 19 38  1  0
 20 39  1  0
 21 40  1  0
 23 41  1  0
M  END
>  <Energy>  (169) 
111.85059398502969

>  <compound_id>  (169) 
77323

>  <target_id>  (169) 
1

>  <reference_id>  (169) 
52

>  <inspiration_ids>  (169) 
[52, 76]

>  <energy_score>  (169) 
20.9285023507025

>  <distance_score>  (169) 
15.428198772866363

>  <path>  (169) 
/opt/xchem-fragalysis-2/maxwin/BulkDock/SCRATCH/511025/C77323-P52/C77323-P52.minimised.mol

>  <scratch_subdir>  (169) 
/opt/xchem-fragalysis-2/maxwin/BulkDock/SCRATCH/511025/C77323-P52

>  <fragmenstein_runtime>  (169) 
20.56334400177002

>  <fragmenstein_outcome>  (169) 
too moved

>  <fragmenstein_mode>  (169) 
expansion

>  <fragmenstein_error>  (169) 


$$$$
C77323-P76
     RDKit          3D

 41 43  0  0  0  0  0  0  0  0999 V2000
    5.9183   -7.1459   26.1397 C   0  0  0  0  0  0  0  0  0  0  0  0
    6.6328   -8.3613   26.7856 C   0  0  0  0  0  0  0  0  0  0  0  0
    7.9677   -7.7380   27.3179 C   0  0  0  0  0  0  0  0  0  0  0  0
    6.9937   -9.3072   25.7484 O   0  0  0  0  0  0  0  0  0  0  0  0
    7.7204   -8.9856   24.6168 C   0  0  0  0  0  0  0  0  0  0  0  0
    7.0517   -8.8781   23.3952 C   0  0  0  0  0  0  0  0  0  0  0  0
    7.7566   -8.9496   22.1867 C   0  0  0  0  0  0  0  0  0  0  0  0
    9.1413   -9.1090   22.1841 C   0  0  0  0  0  0  0  0  0  0  0  0
    9.8237   -9.1634   23.3947 C   0  0  0  0  0  0  0  0  0  0  0  0
    9.1126   -9.1214   24.6041 C   0  0  0  0  0  0  0  0  0  0  0  0
    5.7764   -8.9400   28.2055 C   0  0  0  0  0  0  0  0  0  0  0  0
    6.0662   -8.4726   29.3113 O   0  0  0  0  0  0  0  0  0  0  0  0
    4.7315   -9.9075   28.1412 O   0  0  0  0  0  0  0  0  0  0  0  0
    4.1012  -10.3723   29.5172 C   0  0  0  0  0  0  0  0  0  0  0  0
    2.7915  -11.4048   29.5671 C   0  0  0  0  0  0  0  0  0  0  0  0
    1.5124  -11.1144   29.8416 N   0  0  0  0  0  0  0  0  0  0  0  0
    0.8046  -12.3178   29.9982 C   0  0  0  0  0  0  0  0  0  0  0  0
   -0.5529  -12.5809   30.3111 C   0  0  0  0  0  0  0  0  0  0  0  0
   -1.0059  -13.9097   30.4420 C   0  0  0  0  0  0  0  0  0  0  0  0
   -0.1239  -14.9725   30.2577 C   0  0  0  0  0  0  0  0  0  0  0  0
    1.2257  -14.7350   29.9393 C   0  0  0  0  0  0  0  0  0  0  0  0
    1.6578  -13.3949   29.8218 C   0  0  0  0  0  0  0  0  0  0  0  0
    2.8900  -12.8068   29.5499 N   0  0  0  0  0  0  0  0  0  0  0  0
    6.6040   -6.5163   25.5606 H   0  0  0  0  0  0  0  0  0  0  0  0
    5.1570   -7.4728   25.4337 H   0  0  0  0  0  0  0  0  0  0  0  0
    5.4432   -6.5207   26.9023 H   0  0  0  0  0  0  0  0  0  0  0  0
    8.5451   -7.2271   26.5411 H   0  0  0  0  0  0  0  0  0  0  0  0
    8.6037   -8.5276   27.7341 H   0  0  0  0  0  0  0  0  0  0  0  0
    7.7760   -7.0105   28.1145 H   0  0  0  0  0  0  0  0  0  0  0  0
    5.9671   -8.8270   23.3668 H   0  0  0  0  0  0  0  0  0  0  0  0
    7.2156   -8.9052   21.2434 H   0  0  0  0  0  0  0  0  0  0  0  0
    9.6773   -9.1804   21.2418 H   0  0  0  0  0  0  0  0  0  0  0  0
   10.9026   -9.2984   23.4065 H   0  0  0  0  0  0  0  0  0  0  0  0
    9.6519   -9.2828   25.5339 H   0  0  0  0  0  0  0  0  0  0  0  0
    4.9152  -10.8747   30.0509 H   0  0  0  0  0  0  0  0  0  0  0  0
    3.8033   -9.4593   30.0402 H   0  0  0  0  0  0  0  0  0  0  0  0
   -1.2362  -11.7501   30.4485 H   0  0  0  0  0  0  0  0  0  0  0  0
   -2.0493  -14.1007   30.6804 H   0  0  0  0  0  0  0  0  0  0  0  0
   -0.4814  -15.9953   30.3538 H   0  0  0  0  0  0  0  0  0  0  0  0
    1.9133  -15.5617   29.7907 H   0  0  0  0  0  0  0  0  0  0  0  0
    3.7418  -13.3196   29.3791 H   0  0  0  0  0  0  0  0  0  0  0  0
  1  2  1  0
  2  3  1  0
  2  4  1  0
  4  5  1  0
  5  6  2  0
  6  7  1  0
  7  8  2  0
  8  9  1  0
  9 10  2  0
  2 11  1  0
 11 12  2  0
 11 13  1  0
 13 14  1  0
 14 15  1  0
 15 16  2  0
 16 17  1  0
 17 18  2  0
 18 19  1  0
 19 20  2  0
 20 21  1  0
 21 22  2  0
 22 23  1  0
 10  5  1  0
 23 15  1  0
 22 17  1  0
  1 24  1  0
  1 25  1  0
  1 26  1  0
  3 27  1  0
  3 28  1  0
  3 29  1  0
  6 30  1  0
  7 31  1  0
  8 32  1  0
  9 33  1  0
 10 34  1  0
 14 35  1  0
 14 36  1  0
 18 37  1  0
 19 38  1  0
 20 39  1  0
 21 40  1  0
 23 41  1  0
M  END
>  <Energy>  (170) 
120.53729111110397

>  <compound_id>  (170) 
77323

>  <target_id>  (170) 
1

>  <reference_id>  (170) 
76

>  <inspiration_ids>  (170) 
[52, 76]

>  <energy_score>  (170) 
29.615199476777832

>  <distance_score>  (170) 
15.722369903696833

>  <path>  (170) 
/opt/xchem-fragalysis-2/maxwin/BulkDock/SCRATCH/511025/C77323-P76/C77323-P76.minimised.mol

>  <scratch_subdir>  (170) 
/opt/xchem-fragalysis-2/maxwin/BulkDock/SCRATCH/511025/C77323-P76

>  <fragmenstein_runtime>  (170) 
14.009604454040527

>  <fragmenstein_outcome>  (170) 
too moved

>  <fragmenstein_mode>  (170) 
expansion

>  <fragmenstein_error>  (170) 


$$$$
C77329-P52
     RDKit          3D

 43 45  0  0  0  0  0  0  0  0999 V2000
   -1.1826  -25.7341   26.5859 C   0  0  0  0  0  0  0  0  0  0  0  0
   -1.3783  -24.7344   27.5976 N   0  0  0  0  0  0  0  0  0  0  0  0
   -2.1916  -24.8618   28.6690 C   0  0  0  0  0  0  0  0  0  0  0  0
   -2.2442  -23.7421   29.3404 N   0  0  0  0  0  0  0  0  0  0  0  0
   -1.3454  -22.8958   28.7994 C   0  0  0  0  0  0  0  0  0  0  0  0
   -1.0380  -21.5286   29.2246 C   0  0  0  0  0  0  0  0  0  0  0  0
   -0.4546  -20.5301   28.2221 C   0  0  0  0  0  0  0  0  0  0  0  0
   -0.6747  -18.6158   27.5430 C   0  0  0  0  0  0  0  0  0  0  0  0
   -0.3426  -18.3752   29.0288 N   0  0  0  0  0  0  0  0  0  0  0  0
    0.0484  -16.9845   26.1928 C   0  0  0  0  0  0  0  0  0  0  0  0
    2.0314  -16.0995   26.0954 C   0  0  0  0  0  0  0  0  0  0  0  0
    3.2649  -15.9863   24.6262 O   0  0  0  0  0  0  0  0  0  0  0  0
    4.2028  -14.7607   23.4414 C   0  0  0  0  0  0  0  0  0  0  0  0
    5.7277  -14.0135   22.9644 C   0  0  0  0  0  0  0  0  0  0  0  0
    5.8364  -12.5875   23.0811 C   0  0  0  0  0  0  0  0  0  0  0  0
    6.8976  -11.8341   22.5320 C   0  0  0  0  0  0  0  0  0  0  0  0
    7.8820  -12.4692   21.7928 C   0  0  0  0  0  0  0  0  0  0  0  0
    7.7773  -13.8439   21.5888 C   0  0  0  0  0  0  0  0  0  0  0  0
    6.7112  -14.5981   22.1423 C   0  0  0  0  0  0  0  0  0  0  0  0
    0.6570  -21.7234   27.6225 C   0  0  0  0  0  0  0  0  0  0  0  0
    0.2538  -22.9305   26.9526 C   0  0  0  0  0  0  0  0  0  0  0  0
   -0.7835  -23.5045   27.6688 C   0  0  0  0  0  0  0  0  0  0  0  0
   -0.1252  -26.0120   26.5732 H   0  0  0  0  0  0  0  0  0  0  0  0
   -1.7842  -26.6194   26.8084 H   0  0  0  0  0  0  0  0  0  0  0  0
   -1.4729  -25.3173   25.6179 H   0  0  0  0  0  0  0  0  0  0  0  0
   -2.7468  -25.7628   28.9007 H   0  0  0  0  0  0  0  0  0  0  0  0
   -1.5556  -21.2415   30.1401 H   0  0  0  0  0  0  0  0  0  0  0  0
    0.1011  -19.2075   27.1985 H   0  0  0  0  0  0  0  0  0  0  0  0
   -0.9636  -18.8920   29.6443 H   0  0  0  0  0  0  0  0  0  0  0  0
    0.0080  -17.4660   29.3087 H   0  0  0  0  0  0  0  0  0  0  0  0
   -0.3239  -16.2103   26.8997 H   0  0  0  0  0  0  0  0  0  0  0  0
   -0.7277  -16.7409   25.4911 H   0  0  0  0  0  0  0  0  0  0  0  0
    2.0664  -15.1406   26.6255 H   0  0  0  0  0  0  0  0  0  0  0  0
    2.8834  -16.6710   26.3987 H   0  0  0  0  0  0  0  0  0  0  0  0
    3.9795  -13.7527   23.8849 H   0  0  0  0  0  0  0  0  0  0  0  0
    3.6576  -15.0169   22.5834 H   0  0  0  0  0  0  0  0  0  0  0  0
    5.0481  -12.0303   23.5832 H   0  0  0  0  0  0  0  0  0  0  0  0
    6.9223  -10.7580   22.6730 H   0  0  0  0  0  0  0  0  0  0  0  0
    8.6985  -11.9071   21.3517 H   0  0  0  0  0  0  0  0  0  0  0  0
    8.5083  -14.3493   20.9609 H   0  0  0  0  0  0  0  0  0  0  0  0
    6.6307  -15.6352   21.8327 H   0  0  0  0  0  0  0  0  0  0  0  0
    0.9596  -22.3846   28.4832 H   0  0  0  0  0  0  0  0  0  0  0  0
    0.8508  -23.4429   26.2117 H   0  0  0  0  0  0  0  0  0  0  0  0
  1  2  1  0
  2  3  1  0
  3  4  2  0
  4  5  1  0
  5  6  2  0
  6  7  1  0
  7  8  1  0
  8  9  1  0
  8 10  1  0
 10 11  1  0
 11 12  1  0
 12 13  1  0
 13 14  1  0
 14 15  2  0
 15 16  1  0
 16 17  2  0
 17 18  1  0
 18 19  2  0
  7 20  2  0
 20 21  1  0
 21 22  2  0
 22  2  1  0
 22  5  1  0
 19 14  1  0
  1 23  1  0
  1 24  1  0
  1 25  1  0
  3 26  1  0
  6 27  1  0
  8 28  1  0
  9 29  1  0
  9 30  1  0
 10 31  1  0
 10 32  1  0
 11 33  1  0
 11 34  1  0
 13 35  1  0
 13 36  1  0
 15 37  1  0
 16 38  1  0
 17 39  1  0
 18 40  1  0
 19 41  1  0
 20 42  1  0
 21 43  1  0
M  END
>  <Energy>  (171) 
893.14633407996018

>  <compound_id>  (171) 
77329

>  <target_id>  (171) 
1

>  <reference_id>  (171) 
52

>  <inspiration_ids>  (171) 
[52, 76]

>  <energy_score>  (171) 
821.9187484481524

>  <distance_score>  (171) 
12.739752670164394

>  <path>  (171) 
/opt/xchem-fragalysis-2/maxwin/BulkDock/SCRATCH/511025/C77329-P52/C77329-P52.minimised.mol

>  <scratch_subdir>  (171) 
/opt/xchem-fragalysis-2/maxwin/BulkDock/SCRATCH/511025/C77329-P52

>  <fragmenstein_runtime>  (171) 
26.15080976486206

>  <fragmenstein_outcome>  (171) 
too moved

>  <fragmenstein_mode>  (171) 
expansion

>  <fragmenstein_error>  (171) 


$$$$
C77329-P76
     RDKit          3D

 43 45  0  0  0  0  0  0  0  0999 V2000
   -7.1172  -17.8367   34.2116 C   0  0  0  0  0  0  0  0  0  0  0  0
   -5.7955  -17.3679   33.8712 N   0  0  0  0  0  0  0  0  0  0  0  0
   -4.7026  -17.4758   34.6879 C   0  0  0  0  0  0  0  0  0  0  0  0
   -3.5860  -17.0296   34.1494 N   0  0  0  0  0  0  0  0  0  0  0  0
   -3.9210  -16.5997   32.8884 C   0  0  0  0  0  0  0  0  0  0  0  0
   -2.9258  -16.0435   31.6853 C   0  0  0  0  0  0  0  0  0  0  0  0
   -3.4232  -15.5200   30.0798 C   0  0  0  0  0  0  0  0  0  0  0  0
   -2.0150  -14.3481   29.1313 C   0  0  0  0  0  0  0  0  0  0  0  0
   -2.2663  -12.8253   29.5056 N   0  0  0  0  0  0  0  0  0  0  0  0
   -0.8790  -13.6904   27.5551 C   0  0  0  0  0  0  0  0  0  0  0  0
    0.7253  -12.8289   26.6031 C   0  0  0  0  0  0  0  0  0  0  0  0
    1.7933  -12.7538   25.0061 O   0  0  0  0  0  0  0  0  0  0  0  0
    2.5270  -11.7472   23.5617 C   0  0  0  0  0  0  0  0  0  0  0  0
    3.6981  -10.3213   22.6487 C   0  0  0  0  0  0  0  0  0  0  0  0
    3.2567   -9.1009   21.9021 C   0  0  0  0  0  0  0  0  0  0  0  0
    4.0779   -8.1291   21.2451 C   0  0  0  0  0  0  0  0  0  0  0  0
    5.4512   -8.2118   21.2822 C   0  0  0  0  0  0  0  0  0  0  0  0
    6.0011   -9.2260   22.0313 C   0  0  0  0  0  0  0  0  0  0  0  0
    5.1755  -10.1861   22.6984 C   0  0  0  0  0  0  0  0  0  0  0  0
   -5.2366  -15.9635   29.9926 C   0  0  0  0  0  0  0  0  0  0  0  0
   -6.1375  -16.4920   31.3420 C   0  0  0  0  0  0  0  0  0  0  0  0
   -5.4011  -16.7767   32.6971 C   0  0  0  0  0  0  0  0  0  0  0  0
   -7.2729  -17.6824   35.2836 H   0  0  0  0  0  0  0  0  0  0  0  0
   -7.1765  -18.9007   33.9878 H   0  0  0  0  0  0  0  0  0  0  0  0
   -7.8568  -17.2503   33.6703 H   0  0  0  0  0  0  0  0  0  0  0  0
   -4.7734  -17.9008   35.6807 H   0  0  0  0  0  0  0  0  0  0  0  0
   -1.9260  -15.8092   32.0673 H   0  0  0  0  0  0  0  0  0  0  0  0
   -1.1608  -14.6644   29.7562 H   0  0  0  0  0  0  0  0  0  0  0  0
   -3.2711  -12.7080   29.6860 H   0  0  0  0  0  0  0  0  0  0  0  0
   -2.1778  -12.2351   28.6791 H   0  0  0  0  0  0  0  0  0  0  0  0
   -0.4775  -12.9873   28.3057 H   0  0  0  0  0  0  0  0  0  0  0  0
   -1.6697  -13.2411   26.9344 H   0  0  0  0  0  0  0  0  0  0  0  0
    0.6743  -11.7750   26.8773 H   0  0  0  0  0  0  0  0  0  0  0  0
    1.4888  -13.3465   27.1951 H   0  0  0  0  0  0  0  0  0  0  0  0
    3.0901  -12.5953   23.1959 H   0  0  0  0  0  0  0  0  0  0  0  0
    1.5642  -11.6613   23.0919 H   0  0  0  0  0  0  0  0  0  0  0  0
    2.1982   -8.9170   21.6866 H   0  0  0  0  0  0  0  0  0  0  0  0
    3.5924   -7.3370   20.6794 H   0  0  0  0  0  0  0  0  0  0  0  0
    6.0661   -7.4896   20.7615 H   0  0  0  0  0  0  0  0  0  0  0  0
    7.0814   -9.2853   22.1467 H   0  0  0  0  0  0  0  0  0  0  0  0
    5.7981  -10.7561   23.3919 H   0  0  0  0  0  0  0  0  0  0  0  0
   -5.9944  -15.7599   29.2346 H   0  0  0  0  0  0  0  0  0  0  0  0
   -7.1218  -16.8851   31.2627 H   0  0  0  0  0  0  0  0  0  0  0  0
  1  2  1  0
  2  3  1  0
  3  4  2  0
  4  5  1  0
  5  6  2  0
  6  7  1  0
  7  8  1  0
  8  9  1  0
  8 10  1  0
 10 11  1  0
 11 12  1  0
 12 13  1  0
 13 14  1  0
 14 15  2  0
 15 16  1  0
 16 17  2  0
 17 18  1  0
 18 19  2  0
  7 20  2  0
 20 21  1  0
 21 22  2  0
 22  2  1  0
 22  5  1  0
 19 14  1  0
  1 23  1  0
  1 24  1  0
  1 25  1  0
  3 26  1  0
  6 27  1  0
  8 28  1  0
  9 29  1  0
  9 30  1  0
 10 31  1  0
 10 32  1  0
 11 33  1  0
 11 34  1  0
 13 35  1  0
 13 36  1  0
 15 37  1  0
 16 38  1  0
 17 39  1  0
 18 40  1  0
 19 41  1  0
 20 42  1  0
 21 43  1  0
M  END
>  <Energy>  (172) 
896.28076542381052

>  <compound_id>  (172) 
77329

>  <target_id>  (172) 
1

>  <reference_id>  (172) 
76

>  <inspiration_ids>  (172) 
[52, 76]

>  <energy_score>  (172) 
825.0531797920092

>  <distance_score>  (172) 
11.008379450198488

>  <path>  (172) 
/opt/xchem-fragalysis-2/maxwin/BulkDock/SCRATCH/511025/C77329-P76/C77329-P76.minimised.mol

>  <scratch_subdir>  (172) 
/opt/xchem-fragalysis-2/maxwin/BulkDock/SCRATCH/511025/C77329-P76

>  <fragmenstein_runtime>  (172) 
14.069373607635498

>  <fragmenstein_outcome>  (172) 
too moved

>  <fragmenstein_mode>  (172) 
expansion

>  <fragmenstein_error>  (172) 


$$$$
C77332-P52
     RDKit          3D

 46 50  0  0  0  0  0  0  0  0999 V2000
    5.5032   -7.9406   19.9207 O   0  0  0  0  0  0  0  0  0  0  0  0
    4.8276   -8.7809   20.5045 C   0  0  0  0  0  0  0  0  0  0  0  0
    3.2950   -8.7869   20.7663 C   0  0  0  0  0  0  0  0  0  0  0  0
    3.0416  -10.0594   21.6411 C   0  0  0  0  0  0  0  0  0  0  0  0
    1.6707  -10.7340   22.3153 C   0  0  0  0  0  0  0  0  0  0  0  0
    1.2646  -11.9033   23.1838 C   0  0  0  0  0  0  0  0  0  0  0  0
   -0.5398  -12.9809   23.5762 C   0  0  0  0  0  0  0  0  0  0  0  0
   -0.7638  -13.0269   22.3325 O   0  0  0  0  0  0  0  0  0  0  0  0
   -2.2598  -13.7118   24.7509 C   0  0  0  0  0  0  0  0  0  0  0  0
   -2.8502  -15.5408   26.5101 S   0  0  0  0  0  0  0  0  0  0  0  0
   -4.8272  -16.7468   27.3683 C   0  0  0  0  0  0  0  0  0  0  0  0
   -6.6176  -16.3468   27.5898 N   0  0  0  0  0  0  0  0  0  0  0  0
   -7.8884  -17.7884   27.7700 C   0  0  0  0  0  0  0  0  0  0  0  0
   -8.9938  -18.7098   28.1011 C   0  0  0  0  0  0  0  0  0  0  0  0
   -9.4649  -20.4489   28.1238 C   0  0  0  0  0  0  0  0  0  0  0  0
   -8.4129  -21.3799   28.1578 C   0  0  0  0  0  0  0  0  0  0  0  0
   -7.1641  -20.7719   27.7308 C   0  0  0  0  0  0  0  0  0  0  0  0
   -6.7743  -19.1348   27.3156 C   0  0  0  0  0  0  0  0  0  0  0  0
   -5.1260  -18.4967   26.9278 N   0  0  0  0  0  0  0  0  0  0  0  0
   -3.9776  -19.4655   26.9468 C   0  0  0  0  0  0  0  0  0  0  0  0
   -2.7913  -19.0738   27.5747 C   0  0  0  0  0  0  0  0  0  0  0  0
   -1.7656  -19.9912   27.8159 C   0  0  0  0  0  0  0  0  0  0  0  0
   -1.8762  -21.3057   27.3883 C   0  0  0  0  0  0  0  0  0  0  0  0
   -3.0088  -21.6958   26.7032 C   0  0  0  0  0  0  0  0  0  0  0  0
   -4.0488  -20.7886   26.4976 C   0  0  0  0  0  0  0  0  0  0  0  0
    2.8362  -12.3537   22.8118 C   0  0  0  0  0  0  0  0  0  0  0  0
    4.1874  -11.8528   22.2767 C   0  0  0  0  0  0  0  0  0  0  0  0
    4.2622  -10.6392   21.7228 C   0  0  0  0  0  0  0  0  0  0  0  0
    5.2967   -9.9422   21.1091 N   0  0  0  0  0  0  0  0  0  0  0  0
    3.0871   -7.8620   21.3068 H   0  0  0  0  0  0  0  0  0  0  0  0
    2.7695   -8.8284   19.8125 H   0  0  0  0  0  0  0  0  0  0  0  0
    0.7933  -10.4566   21.7206 H   0  0  0  0  0  0  0  0  0  0  0  0
   -2.8758  -14.2079   23.9962 H   0  0  0  0  0  0  0  0  0  0  0  0
   -2.6712  -12.8395   25.2263 H   0  0  0  0  0  0  0  0  0  0  0  0
   -9.8210  -19.0768   29.1032 H   0  0  0  0  0  0  0  0  0  0  0  0
  -10.4666  -20.7417   28.4600 H   0  0  0  0  0  0  0  0  0  0  0  0
   -8.6551  -22.3934   28.4059 H   0  0  0  0  0  0  0  0  0  0  0  0
   -6.2874  -21.4224   27.6700 H   0  0  0  0  0  0  0  0  0  0  0  0
   -2.6443  -18.0640   27.9458 H   0  0  0  0  0  0  0  0  0  0  0  0
   -0.8669  -19.6645   28.3349 H   0  0  0  0  0  0  0  0  0  0  0  0
   -1.0651  -22.0078   27.5597 H   0  0  0  0  0  0  0  0  0  0  0  0
   -3.0843  -22.7046   26.3098 H   0  0  0  0  0  0  0  0  0  0  0  0
   -4.8648  -21.2113   25.9446 H   0  0  0  0  0  0  0  0  0  0  0  0
    3.1206  -13.3818   22.8721 H   0  0  0  0  0  0  0  0  0  0  0  0
    5.0299  -12.5379   22.2741 H   0  0  0  0  0  0  0  0  0  0  0  0
    6.2539  -10.2516   21.0477 H   0  0  0  0  0  0  0  0  0  0  0  0
  1  2  2  0
  2  3  1  0
  3  4  1  0
  4  5  2  0
  5  6  1  0
  6  7  1  0
  7  8  2  0
  7  9  1  0
  9 10  1  0
 10 11  1  0
 11 12  2  0
 12 13  1  0
 13 14  2  0
 14 15  1  0
 15 16  2  0
 16 17  1  0
 17 18  2  0
 18 19  1  0
 19 20  1  0
 20 21  2  0
 21 22  1  0
 22 23  2  0
 23 24  1  0
 24 25  2  0
  6 26  2  0
 26 27  1  0
 27 28  2  0
 28 29  1  0
 29  2  1  0
 28  4  1  0
 19 11  1  0
 25 20  1  0
 18 13  1  0
  3 30  1  0
  3 31  1  0
  5 32  1  0
  9 33  1  0
  9 34  1  0
 14 35  1  0
 15 36  1  0
 16 37  1  0
 17 38  1  0
 21 39  1  0
 22 40  1  0
 23 41  1  0
 24 42  1  0
 25 43  1  0
 26 44  1  0
 27 45  1  0
 29 46  1  0
M  END
>  <Energy>  (173) 
1485.991897092922

>  <compound_id>  (173) 
77332

>  <target_id>  (173) 
1

>  <reference_id>  (173) 
52

>  <inspiration_ids>  (173) 
[52, 76]

>  <energy_score>  (173) 
1344.45771244387

>  <distance_score>  (173) 
12.468950431929084

>  <path>  (173) 
/opt/xchem-fragalysis-2/maxwin/BulkDock/SCRATCH/511025/C77332-P52/C77332-P52.minimised.mol

>  <scratch_subdir>  (173) 
/opt/xchem-fragalysis-2/maxwin/BulkDock/SCRATCH/511025/C77332-P52

>  <fragmenstein_runtime>  (173) 
19.178860187530518

>  <fragmenstein_outcome>  (173) 
too moved

>  <fragmenstein_mode>  (173) 
expansion

>  <fragmenstein_error>  (173) 


$$$$
C77332-P76
     RDKit          3D

 46 50  0  0  0  0  0  0  0  0999 V2000
    0.5155   -7.3927   17.4497 O   0  0  0  0  0  0  0  0  0  0  0  0
   -0.3234   -7.9758   18.1308 C   0  0  0  0  0  0  0  0  0  0  0  0
   -1.4144   -9.0116   17.6858 C   0  0  0  0  0  0  0  0  0  0  0  0
   -2.0412   -9.4856   19.0103 C   0  0  0  0  0  0  0  0  0  0  0  0
   -2.9522  -10.5736   19.3449 C   0  0  0  0  0  0  0  0  0  0  0  0
   -3.6132  -10.7596   20.6648 C   0  0  0  0  0  0  0  0  0  0  0  0
   -5.2772  -11.6816   20.7681 C   0  0  0  0  0  0  0  0  0  0  0  0
   -4.9663  -12.2104   19.6196 O   0  0  0  0  0  0  0  0  0  0  0  0
   -6.9822  -12.3460   21.9333 C   0  0  0  0  0  0  0  0  0  0  0  0
   -9.3995  -13.4723   21.3405 S   0  0  0  0  0  0  0  0  0  0  0  0
  -10.8062  -15.1231   22.7280 C   0  0  0  0  0  0  0  0  0  0  0  0
  -10.9568  -15.5176   24.3813 N   0  0  0  0  0  0  0  0  0  0  0  0
  -10.3267  -16.8740   25.4654 C   0  0  0  0  0  0  0  0  0  0  0  0
  -10.9050  -17.2971   27.2121 C   0  0  0  0  0  0  0  0  0  0  0  0
  -12.0847  -18.6213   28.0992 C   0  0  0  0  0  0  0  0  0  0  0  0
  -12.1084  -20.4390   27.0233 C   0  0  0  0  0  0  0  0  0  0  0  0
  -11.7203  -19.9749   25.0771 C   0  0  0  0  0  0  0  0  0  0  0  0
  -11.5139  -17.9013   24.6982 C   0  0  0  0  0  0  0  0  0  0  0  0
  -10.5865  -16.9030   23.3702 N   0  0  0  0  0  0  0  0  0  0  0  0
   -9.8780  -18.0738   22.5258 C   0  0  0  0  0  0  0  0  0  0  0  0
   -9.5925  -17.0819   21.0733 C   0  0  0  0  0  0  0  0  0  0  0  0
  -10.2608  -17.6710   19.6958 C   0  0  0  0  0  0  0  0  0  0  0  0
  -11.0030  -19.1538   19.6133 C   0  0  0  0  0  0  0  0  0  0  0  0
  -11.2272  -20.2650   20.8283 C   0  0  0  0  0  0  0  0  0  0  0  0
  -10.7882  -19.8554   22.4018 C   0  0  0  0  0  0  0  0  0  0  0  0
   -2.9758   -9.8439   21.5771 C   0  0  0  0  0  0  0  0  0  0  0  0
   -1.8752   -8.9400   21.3035 C   0  0  0  0  0  0  0  0  0  0  0  0
   -1.4812   -8.7096   20.0082 C   0  0  0  0  0  0  0  0  0  0  0  0
   -0.5033   -7.8306   19.5064 N   0  0  0  0  0  0  0  0  0  0  0  0
   -2.1672   -8.5011   17.0790 H   0  0  0  0  0  0  0  0  0  0  0  0
   -0.9538   -9.8368   17.1388 H   0  0  0  0  0  0  0  0  0  0  0  0
   -3.2774  -11.1955   18.5090 H   0  0  0  0  0  0  0  0  0  0  0  0
   -7.2584  -11.5852   22.7177 H   0  0  0  0  0  0  0  0  0  0  0  0
   -6.4364  -12.8796   22.7394 H   0  0  0  0  0  0  0  0  0  0  0  0
  -11.1055  -16.2097   27.4365 H   0  0  0  0  0  0  0  0  0  0  0  0
  -12.5109  -18.3494   29.0100 H   0  0  0  0  0  0  0  0  0  0  0  0
  -12.1557  -21.4411   27.4691 H   0  0  0  0  0  0  0  0  0  0  0  0
  -12.2071  -20.5874   24.3006 H   0  0  0  0  0  0  0  0  0  0  0  0
   -8.6663  -16.5191   20.9659 H   0  0  0  0  0  0  0  0  0  0  0  0
  -10.0114  -17.1842   18.7507 H   0  0  0  0  0  0  0  0  0  0  0  0
  -11.2095  -19.5242   18.6037 H   0  0  0  0  0  0  0  0  0  0  0  0
  -11.3197  -21.3194   20.5627 H   0  0  0  0  0  0  0  0  0  0  0  0
  -10.5992  -20.6575   23.1148 H   0  0  0  0  0  0  0  0  0  0  0  0
   -3.4469   -9.6488   22.5358 H   0  0  0  0  0  0  0  0  0  0  0  0
   -1.4596   -8.3658   22.1237 H   0  0  0  0  0  0  0  0  0  0  0  0
    0.1655   -7.3340   20.0708 H   0  0  0  0  0  0  0  0  0  0  0  0
  1  2  2  0
  2  3  1  0
  3  4  1  0
  4  5  2  0
  5  6  1  0
  6  7  1  0
  7  8  2  0
  7  9  1  0
  9 10  1  0
 10 11  1  0
 11 12  2  0
 12 13  1  0
 13 14  2  0
 14 15  1  0
 15 16  2  0
 16 17  1  0
 17 18  2  0
 18 19  1  0
 19 20  1  0
 20 21  2  0
 21 22  1  0
 22 23  2  0
 23 24  1  0
 24 25  2  0
  6 26  2  0
 26 27  1  0
 27 28  2  0
 28 29  1  0
 29  2  1  0
 28  4  1  0
 19 11  1  0
 25 20  1  0
 18 13  1  0
  3 30  1  0
  3 31  1  0
  5 32  1  0
  9 33  1  0
  9 34  1  0
 14 35  1  0
 15 36  1  0
 16 37  1  0
 17 38  1  0
 21 39  1  0
 22 40  1  0
 23 41  1  0
 24 42  1  0
 25 43  1  0
 26 44  1  0
 27 45  1  0
 29 46  1  0
M  END
>  <Energy>  (174) 
2330.9676658941139

>  <compound_id>  (174) 
77332

>  <target_id>  (174) 
1

>  <reference_id>  (174) 
76

>  <inspiration_ids>  (174) 
[52, 76]

>  <energy_score>  (174) 
2189.4334812450243

>  <distance_score>  (174) 
13.979643878222989

>  <path>  (174) 
/opt/xchem-fragalysis-2/maxwin/BulkDock/SCRATCH/511025/C77332-P76/C77332-P76.minimised.mol

>  <scratch_subdir>  (174) 
/opt/xchem-fragalysis-2/maxwin/BulkDock/SCRATCH/511025/C77332-P76

>  <fragmenstein_runtime>  (174) 
14.553050756454468

>  <fragmenstein_outcome>  (174) 
too moved

>  <fragmenstein_mode>  (174) 
expansion

>  <fragmenstein_error>  (174) 


$$$$
C77334-P52
     RDKit          3D

 48 50  0  0  0  0  0  0  0  0999 V2000
    0.3224   -9.8055   25.4455 C   0  0  0  0  0  0  0  0  0  0  0  0
    0.5547  -11.5568   25.1038 C   0  0  0  0  0  0  0  0  0  0  0  0
    1.7971  -12.1936   25.7548 C   0  0  0  0  0  0  0  0  0  0  0  0
    0.1138  -12.7807   23.6825 C   0  0  0  0  0  0  0  0  0  0  0  0
   -1.8209  -13.5129   24.2362 C   0  0  0  0  0  0  0  0  0  0  0  0
   -2.8737  -15.0647   24.9676 N   0  0  0  0  0  0  0  0  0  0  0  0
   -3.6319  -15.8149   26.6767 C   0  0  0  0  0  0  0  0  0  0  0  0
   -5.2310  -17.1603   27.0948 C   0  0  0  0  0  0  0  0  0  0  0  0
   -5.4530  -18.6614   26.2208 C   0  0  0  0  0  0  0  0  0  0  0  0
   -5.8614  -19.9679   26.5999 C   0  0  0  0  0  0  0  0  0  0  0  0
   -6.9847  -19.8430   27.3169 C   0  0  0  0  0  0  0  0  0  0  0  0
   -7.2755  -18.3146   27.8283 C   0  0  0  0  0  0  0  0  0  0  0  0
   -6.4123  -17.1112   27.8614 C   0  0  0  0  0  0  0  0  0  0  0  0
   -8.7013  -18.3636   28.1464 N   0  0  0  0  0  0  0  0  0  0  0  0
   -9.2118  -19.8626   27.7973 C   0  0  0  0  0  0  0  0  0  0  0  0
   -7.9737  -20.7573   27.8060 N   0  0  0  0  0  0  0  0  0  0  0  0
   -8.5783  -22.0720   28.1030 C   0  0  0  0  0  0  0  0  0  0  0  0
    1.6417  -11.5585   22.9814 C   0  0  0  0  0  0  0  0  0  0  0  0
    1.5302  -10.1930   22.3369 C   0  0  0  0  0  0  0  0  0  0  0  0
    2.5706   -9.5052   21.6240 C   0  0  0  0  0  0  0  0  0  0  0  0
    3.8170  -10.0783   21.4299 C   0  0  0  0  0  0  0  0  0  0  0  0
    4.0327  -11.3548   21.9251 C   0  0  0  0  0  0  0  0  0  0  0  0
    3.0107  -12.0789   22.6336 C   0  0  0  0  0  0  0  0  0  0  0  0
    0.5373   -9.5517   26.4853 H   0  0  0  0  0  0  0  0  0  0  0  0
   -0.5508   -9.2970   25.0696 H   0  0  0  0  0  0  0  0  0  0  0  0
    0.9728   -9.1224   24.8862 H   0  0  0  0  0  0  0  0  0  0  0  0
    1.0725  -10.9317   24.4989 H   0  0  0  0  0  0  0  0  0  0  0  0
    1.5448  -12.9623   26.5166 H   0  0  0  0  0  0  0  0  0  0  0  0
    2.2206  -11.4858   26.3406 H   0  0  0  0  0  0  0  0  0  0  0  0
    2.7743  -12.3485   25.2485 H   0  0  0  0  0  0  0  0  0  0  0  0
   -0.3094  -12.7390   22.6439 H   0  0  0  0  0  0  0  0  0  0  0  0
   -1.9723  -14.0149   23.3039 H   0  0  0  0  0  0  0  0  0  0  0  0
   -2.3978  -12.6970   24.6677 H   0  0  0  0  0  0  0  0  0  0  0  0
   -3.6625  -14.9642   24.3318 H   0  0  0  0  0  0  0  0  0  0  0  0
   -2.7235  -16.4094   26.7984 H   0  0  0  0  0  0  0  0  0  0  0  0
   -3.5897  -15.0201   27.4198 H   0  0  0  0  0  0  0  0  0  0  0  0
   -4.8704  -18.8398   25.2950 H   0  0  0  0  0  0  0  0  0  0  0  0
   -5.5760  -20.8825   26.1030 H   0  0  0  0  0  0  0  0  0  0  0  0
   -6.7698  -16.2617   28.4294 H   0  0  0  0  0  0  0  0  0  0  0  0
  -10.1628  -20.3161   28.1127 H   0  0  0  0  0  0  0  0  0  0  0  0
   -9.6457  -21.9980   28.3658 H   0  0  0  0  0  0  0  0  0  0  0  0
   -8.6744  -22.6927   27.2118 H   0  0  0  0  0  0  0  0  0  0  0  0
   -8.2884  -22.5690   29.0050 H   0  0  0  0  0  0  0  0  0  0  0  0
    0.6352   -9.5971   22.3608 H   0  0  0  0  0  0  0  0  0  0  0  0
    2.3678   -8.5137   21.2243 H   0  0  0  0  0  0  0  0  0  0  0  0
    4.5960   -9.5571   20.8851 H   0  0  0  0  0  0  0  0  0  0  0  0
    4.9881  -11.8471   21.7484 H   0  0  0  0  0  0  0  0  0  0  0  0
    3.3219  -13.0885   22.8600 H   0  0  0  0  0  0  0  0  0  0  0  0
  1  2  1  0
  2  3  1  0
  2  4  1  0
  4  5  1  0
  5  6  1  0
  6  7  1  0
  7  8  1  0
  8  9  2  0
  9 10  1  0
 10 11  2  0
 11 12  1  0
 12 13  2  0
 12 14  1  0
 14 15  2  0
 15 16  1  0
 16 17  1  0
  4 18  1  0
 18 19  2  0
 19 20  1  0
 20 21  2  0
 21 22  1  0
 22 23  2  0
 13  8  1  0
 23 18  1  0
 16 11  1  0
  1 24  1  0
  1 25  1  0
  1 26  1  0
  2 27  1  0
  3 28  1  0
  3 29  1  0
  3 30  1  0
  4 31  1  0
  5 32  1  0
  5 33  1  0
  6 34  1  0
  7 35  1  0
  7 36  1  0
  9 37  1  0
 10 38  1  0
 13 39  1  0
 15 40  1  0
 17 41  1  0
 17 42  1  0
 17 43  1  0
 19 44  1  0
 20 45  1  0
 21 46  1  0
 22 47  1  0
 23 48  1  0
M  END
>  <Energy>  (175) 
1045.9741575428973

>  <compound_id>  (175) 
77334

>  <target_id>  (175) 
1

>  <reference_id>  (175) 
52

>  <inspiration_ids>  (175) 
[52, 76]

>  <energy_score>  (175) 
960.0759249938908

>  <distance_score>  (175) 
11.500654796193116

>  <path>  (175) 
/opt/xchem-fragalysis-2/maxwin/BulkDock/SCRATCH/511025/C77334-P52/C77334-P52.minimised.mol

>  <scratch_subdir>  (175) 
/opt/xchem-fragalysis-2/maxwin/BulkDock/SCRATCH/511025/C77334-P52

>  <fragmenstein_runtime>  (175) 
28.131535291671753

>  <fragmenstein_outcome>  (175) 
too moved

>  <fragmenstein_mode>  (175) 
expansion

>  <fragmenstein_error>  (175) 


$$$$
C77334-P76
     RDKit          3D

 48 50  0  0  0  0  0  0  0  0999 V2000
    3.4615   -8.8441   21.1255 C   0  0  0  0  0  0  0  0  0  0  0  0
    3.9500  -10.0016   22.0405 C   0  0  0  0  0  0  0  0  0  0  0  0
    5.4783   -9.8708   22.1781 C   0  0  0  0  0  0  0  0  0  0  0  0
    3.1671  -11.4753   21.9040 C   0  0  0  0  0  0  0  0  0  0  0  0
    2.4672  -12.4322   23.5002 C   0  0  0  0  0  0  0  0  0  0  0  0
    1.1398  -13.7730   23.8813 N   0  0  0  0  0  0  0  0  0  0  0  0
   -0.6270  -14.2388   24.2446 C   0  0  0  0  0  0  0  0  0  0  0  0
   -1.9841  -14.4746   25.5157 C   0  0  0  0  0  0  0  0  0  0  0  0
   -1.8104  -13.9588   26.8656 C   0  0  0  0  0  0  0  0  0  0  0  0
   -1.6811  -15.0171   27.7826 C   0  0  0  0  0  0  0  0  0  0  0  0
   -2.1397  -16.7283   27.3372 C   0  0  0  0  0  0  0  0  0  0  0  0
   -2.7711  -16.8120   26.1589 C   0  0  0  0  0  0  0  0  0  0  0  0
   -2.6365  -15.6973   25.1279 C   0  0  0  0  0  0  0  0  0  0  0  0
   -3.0581  -16.4045   27.6397 N   0  0  0  0  0  0  0  0  0  0  0  0
   -3.9059  -16.2899   28.5786 C   0  0  0  0  0  0  0  0  0  0  0  0
   -3.8991  -17.1288   27.4530 N   0  0  0  0  0  0  0  0  0  0  0  0
   -5.3553  -18.1945   27.3651 C   0  0  0  0  0  0  0  0  0  0  0  0
    3.8431  -11.7636   20.3965 C   0  0  0  0  0  0  0  0  0  0  0  0
    3.2868  -11.0564   19.2848 C   0  0  0  0  0  0  0  0  0  0  0  0
    3.9908  -10.7672   18.0928 C   0  0  0  0  0  0  0  0  0  0  0  0
    5.2992  -11.1869   17.9298 C   0  0  0  0  0  0  0  0  0  0  0  0
    5.8639  -11.9478   18.9371 C   0  0  0  0  0  0  0  0  0  0  0  0
    5.1414  -12.2405   20.1236 C   0  0  0  0  0  0  0  0  0  0  0  0
    3.6185   -7.8823   21.6316 H   0  0  0  0  0  0  0  0  0  0  0  0
    2.3900   -8.9087   20.9152 H   0  0  0  0  0  0  0  0  0  0  0  0
    4.0246   -8.7793   20.1913 H   0  0  0  0  0  0  0  0  0  0  0  0
    3.5970   -9.6283   22.9415 H   0  0  0  0  0  0  0  0  0  0  0  0
    6.0199  -10.1314   21.2689 H   0  0  0  0  0  0  0  0  0  0  0  0
    5.8850  -10.4331   23.0189 H   0  0  0  0  0  0  0  0  0  0  0  0
    5.7389   -8.8245   22.3868 H   0  0  0  0  0  0  0  0  0  0  0  0
    2.1838  -11.1130   21.5938 H   0  0  0  0  0  0  0  0  0  0  0  0
    2.0610  -11.7474   24.1860 H   0  0  0  0  0  0  0  0  0  0  0  0
    3.2672  -13.0230   23.8993 H   0  0  0  0  0  0  0  0  0  0  0  0
    1.5432  -14.5355   23.3564 H   0  0  0  0  0  0  0  0  0  0  0  0
   -1.0879  -13.4824   24.8394 H   0  0  0  0  0  0  0  0  0  0  0  0
   -1.0404  -14.5851   23.3107 H   0  0  0  0  0  0  0  0  0  0  0  0
   -1.3099  -13.0161   27.0655 H   0  0  0  0  0  0  0  0  0  0  0  0
   -1.1143  -14.9027   28.7088 H   0  0  0  0  0  0  0  0  0  0  0  0
   -3.0581  -15.6612   24.1500 H   0  0  0  0  0  0  0  0  0  0  0  0
   -4.8380  -16.4123   29.1681 H   0  0  0  0  0  0  0  0  0  0  0  0
   -6.3346  -17.7211   27.6484 H   0  0  0  0  0  0  0  0  0  0  0  0
   -4.8302  -18.8285   27.8594 H   0  0  0  0  0  0  0  0  0  0  0  0
   -5.6584  -18.9819   26.5942 H   0  0  0  0  0  0  0  0  0  0  0  0
    2.2904  -10.6226   19.3711 H   0  0  0  0  0  0  0  0  0  0  0  0
    3.4991  -10.1970   17.3092 H   0  0  0  0  0  0  0  0  0  0  0  0
    5.8444  -10.9780   17.0156 H   0  0  0  0  0  0  0  0  0  0  0  0
    6.8663  -12.3507   18.8146 H   0  0  0  0  0  0  0  0  0  0  0  0
    5.6757  -12.8726   20.8062 H   0  0  0  0  0  0  0  0  0  0  0  0
  1  2  1  0
  2  3  1  0
  2  4  1  0
  4  5  1  0
  5  6  1  0
  6  7  1  0
  7  8  1  0
  8  9  2  0
  9 10  1  0
 10 11  2  0
 11 12  1  0
 12 13  2  0
 12 14  1  0
 14 15  2  0
 15 16  1  0
 16 17  1  0
  4 18  1  0
 18 19  2  0
 19 20  1  0
 20 21  2  0
 21 22  1  0
 22 23  2  0
 13  8  1  0
 23 18  1  0
 16 11  1  0
  1 24  1  0
  1 25  1  0
  1 26  1  0
  2 27  1  0
  3 28  1  0
  3 29  1  0
  3 30  1  0
  4 31  1  0
  5 32  1  0
  5 33  1  0
  6 34  1  0
  7 35  1  0
  7 36  1  0
  9 37  1  0
 10 38  1  0
 13 39  1  0
 15 40  1  0
 17 41  1  0
 17 42  1  0
 17 43  1  0
 19 44  1  0
 20 45  1  0
 21 46  1  0
 22 47  1  0
 23 48  1  0
M  END
>  <Energy>  (176) 
1177.5812501701846

>  <compound_id>  (176) 
77334

>  <target_id>  (176) 
1

>  <reference_id>  (176) 
76

>  <inspiration_ids>  (176) 
[52, 76]

>  <energy_score>  (176) 
1091.6830176211902

>  <distance_score>  (176) 
12.452958920892312

>  <path>  (176) 
/opt/xchem-fragalysis-2/maxwin/BulkDock/SCRATCH/511025/C77334-P76/C77334-P76.minimised.mol

>  <scratch_subdir>  (176) 
/opt/xchem-fragalysis-2/maxwin/BulkDock/SCRATCH/511025/C77334-P76

>  <fragmenstein_runtime>  (176) 
24.36198115348816

>  <fragmenstein_outcome>  (176) 
too moved

>  <fragmenstein_mode>  (176) 
expansion

>  <fragmenstein_error>  (176) 


$$$$
C77335-P52
     RDKit          3D

 43 45  0  0  0  0  0  0  0  0999 V2000
    5.9142  -12.2989   26.6181 C   0  0  0  0  0  0  0  0  0  0  0  0
    5.0898  -12.4521   25.3299 C   0  0  0  0  0  0  0  0  0  0  0  0
    5.7608  -13.2774   24.1525 C   0  0  0  0  0  0  0  0  0  0  0  0
    7.0838  -12.2102   23.5891 C   0  0  0  0  0  0  0  0  0  0  0  0
    6.9552  -10.7861   23.5414 C   0  0  0  0  0  0  0  0  0  0  0  0
    7.9904   -9.9219   23.1237 C   0  0  0  0  0  0  0  0  0  0  0  0
    9.2317  -10.4291   22.7780 C   0  0  0  0  0  0  0  0  0  0  0  0
    9.4348  -11.7983   22.8679 C   0  0  0  0  0  0  0  0  0  0  0  0
    8.3987  -12.6661   23.2933 C   0  0  0  0  0  0  0  0  0  0  0  0
    4.7513  -15.0133   23.7644 C   0  0  0  0  0  0  0  0  0  0  0  0
    6.2921  -15.1114   22.8876 N   0  0  0  0  0  0  0  0  0  0  0  0
    3.8561  -16.8947   24.5044 C   0  0  0  0  0  0  0  0  0  0  0  0
    2.6688  -16.8582   24.3782 O   0  0  0  0  0  0  0  0  0  0  0  0
    4.9498  -18.1889   25.3155 N   0  0  0  0  0  0  0  0  0  0  0  0
    4.6156  -19.5603   26.1677 C   0  0  0  0  0  0  0  0  0  0  0  0
    5.8244  -19.5944   27.0076 C   0  0  0  0  0  0  0  0  0  0  0  0
    6.0895  -20.2445   28.2449 C   0  0  0  0  0  0  0  0  0  0  0  0
    5.1449  -21.0289   28.8462 C   0  0  0  0  0  0  0  0  0  0  0  0
    4.1063  -21.3254   27.9975 C   0  0  0  0  0  0  0  0  0  0  0  0
    3.0957  -22.2388   28.2316 N   0  0  0  0  0  0  0  0  0  0  0  0
    2.6380  -22.5822   27.0199 C   0  0  0  0  0  0  0  0  0  0  0  0
    3.1463  -21.7641   26.1311 N   0  0  0  0  0  0  0  0  0  0  0  0
    3.9337  -20.7863   26.6803 C   0  0  0  0  0  0  0  0  0  0  0  0
    6.8969  -11.8621   26.4175 H   0  0  0  0  0  0  0  0  0  0  0  0
    5.3907  -11.6312   27.3108 H   0  0  0  0  0  0  0  0  0  0  0  0
    6.0660  -13.2489   27.1351 H   0  0  0  0  0  0  0  0  0  0  0  0
    4.9743  -11.4484   24.9812 H   0  0  0  0  0  0  0  0  0  0  0  0
    4.1118  -12.8579   25.5807 H   0  0  0  0  0  0  0  0  0  0  0  0
    6.6635  -13.6806   24.6816 H   0  0  0  0  0  0  0  0  0  0  0  0
    6.0240  -10.2917   23.8036 H   0  0  0  0  0  0  0  0  0  0  0  0
    7.8085   -8.8514   23.0907 H   0  0  0  0  0  0  0  0  0  0  0  0
   10.0383   -9.7717   22.4702 H   0  0  0  0  0  0  0  0  0  0  0  0
   10.4130  -12.2135   22.6345 H   0  0  0  0  0  0  0  0  0  0  0  0
    8.6797  -13.7092   23.3941 H   0  0  0  0  0  0  0  0  0  0  0  0
    4.0774  -14.6519   22.9879 H   0  0  0  0  0  0  0  0  0  0  0  0
    7.0893  -14.6508   23.2706 H   0  0  0  0  0  0  0  0  0  0  0  0
    6.5505  -15.9355   22.3365 H   0  0  0  0  0  0  0  0  0  0  0  0
    5.8686  -17.9960   25.2009 H   0  0  0  0  0  0  0  0  0  0  0  0
    6.6586  -18.9462   26.7316 H   0  0  0  0  0  0  0  0  0  0  0  0
    7.0367  -20.0562   28.7470 H   0  0  0  0  0  0  0  0  0  0  0  0
    5.2884  -21.4937   29.8125 H   0  0  0  0  0  0  0  0  0  0  0  0
    2.9652  -22.7616   29.0845 H   0  0  0  0  0  0  0  0  0  0  0  0
    1.9769  -23.4121   26.8123 H   0  0  0  0  0  0  0  0  0  0  0  0
  1  2  1  0
  2  3  1  0
  3  4  1  0
  4  5  2  0
  5  6  1  0
  6  7  2  0
  7  8  1  0
  8  9  2  0
  3 10  1  0
 10 11  1  0
 10 12  1  0
 12 13  2  0
 12 14  1  0
 14 15  1  0
 15 16  2  0
 16 17  1  0
 17 18  2  0
 18 19  1  0
 19 20  1  0
 20 21  1  0
 21 22  2  0
 22 23  1  0
  9  4  1  0
 23 15  1  0
 23 19  2  0
  1 24  1  0
  1 25  1  0
  1 26  1  0
  2 27  1  0
  2 28  1  0
  3 29  1  0
  5 30  1  0
  6 31  1  0
  7 32  1  0
  8 33  1  0
  9 34  1  0
 10 35  1  0
 11 36  1  0
 11 37  1  0
 14 38  1  0
 16 39  1  0
 17 40  1  0
 18 41  1  0
 20 42  1  0
 21 43  1  0
M  END
>  <Energy>  (177) 
621.97941857034652

>  <compound_id>  (177) 
77335

>  <target_id>  (177) 
1

>  <reference_id>  (177) 
52

>  <inspiration_ids>  (177) 
[52, 76]

>  <energy_score>  (177) 
481.87222539429104

>  <distance_score>  (177) 
15.255572597103237

>  <path>  (177) 
/opt/xchem-fragalysis-2/maxwin/BulkDock/SCRATCH/511025/C77335-P52/C77335-P52.minimised.mol

>  <scratch_subdir>  (177) 
/opt/xchem-fragalysis-2/maxwin/BulkDock/SCRATCH/511025/C77335-P52

>  <fragmenstein_runtime>  (177) 
28.378039598464966

>  <fragmenstein_outcome>  (177) 
too moved

>  <fragmenstein_mode>  (177) 
expansion

>  <fragmenstein_error>  (177) 


$$$$
C77335-P76
     RDKit          3D

 43 45  0  0  0  0  0  0  0  0999 V2000
   -2.9325   -7.9754   20.5438 C   0  0  0  0  0  0  0  0  0  0  0  0
   -2.3657   -9.3574   20.2254 C   0  0  0  0  0  0  0  0  0  0  0  0
   -1.1354   -9.7747   21.1205 C   0  0  0  0  0  0  0  0  0  0  0  0
    0.0466   -8.5997   20.8775 C   0  0  0  0  0  0  0  0  0  0  0  0
    0.6183   -7.8806   21.9358 C   0  0  0  0  0  0  0  0  0  0  0  0
    1.6659   -6.9329   21.7732 C   0  0  0  0  0  0  0  0  0  0  0  0
    2.1263   -6.5761   20.5138 C   0  0  0  0  0  0  0  0  0  0  0  0
    1.4691   -7.1078   19.4212 C   0  0  0  0  0  0  0  0  0  0  0  0
    0.4244   -8.0479   19.6118 C   0  0  0  0  0  0  0  0  0  0  0  0
   -1.3748  -11.6363   21.4094 C   0  0  0  0  0  0  0  0  0  0  0  0
   -0.2428  -12.6318   22.6687 N   0  0  0  0  0  0  0  0  0  0  0  0
   -2.0721  -12.8640   20.2631 C   0  0  0  0  0  0  0  0  0  0  0  0
   -2.4005  -12.3098   19.1976 O   0  0  0  0  0  0  0  0  0  0  0  0
   -2.0983  -14.6656   20.6919 N   0  0  0  0  0  0  0  0  0  0  0  0
   -2.5269  -16.0627   19.7365 C   0  0  0  0  0  0  0  0  0  0  0  0
   -3.4653  -16.8174   20.3953 C   0  0  0  0  0  0  0  0  0  0  0  0
   -4.7126  -17.7333   19.8029 C   0  0  0  0  0  0  0  0  0  0  0  0
   -4.6930  -18.1670   18.5652 C   0  0  0  0  0  0  0  0  0  0  0  0
   -3.3544  -18.3190   18.6094 C   0  0  0  0  0  0  0  0  0  0  0  0
   -2.7346  -19.4253   18.1483 N   0  0  0  0  0  0  0  0  0  0  0  0
   -1.4527  -19.1103   18.2473 C   0  0  0  0  0  0  0  0  0  0  0  0
   -1.1852  -18.1908   19.1581 N   0  0  0  0  0  0  0  0  0  0  0  0
   -2.3114  -17.4428   19.2924 C   0  0  0  0  0  0  0  0  0  0  0  0
   -3.8403   -7.8029   19.9561 H   0  0  0  0  0  0  0  0  0  0  0  0
   -3.1997   -7.8973   21.6025 H   0  0  0  0  0  0  0  0  0  0  0  0
   -2.2320   -7.1720   20.3030 H   0  0  0  0  0  0  0  0  0  0  0  0
   -2.1066   -9.4101   19.1630 H   0  0  0  0  0  0  0  0  0  0  0  0
   -3.1927  -10.0610   20.3650 H   0  0  0  0  0  0  0  0  0  0  0  0
   -1.4333   -9.4532   22.1253 H   0  0  0  0  0  0  0  0  0  0  0  0
    0.2619   -8.0521   22.9430 H   0  0  0  0  0  0  0  0  0  0  0  0
    2.1039   -6.4795   22.6574 H   0  0  0  0  0  0  0  0  0  0  0  0
    2.9319   -5.8626   20.3916 H   0  0  0  0  0  0  0  0  0  0  0  0
    1.7378   -6.8091   18.4130 H   0  0  0  0  0  0  0  0  0  0  0  0
   -0.0872   -8.3761   18.7079 H   0  0  0  0  0  0  0  0  0  0  0  0
   -2.4032  -11.4175   21.6642 H   0  0  0  0  0  0  0  0  0  0  0  0
   -0.5454  -13.0784   23.5376 H   0  0  0  0  0  0  0  0  0  0  0  0
   -0.1269  -13.6065   22.2975 H   0  0  0  0  0  0  0  0  0  0  0  0
   -1.8192  -14.8020   21.6528 H   0  0  0  0  0  0  0  0  0  0  0  0
   -3.8288  -16.4566   21.3644 H   0  0  0  0  0  0  0  0  0  0  0  0
   -5.6013  -17.8655   20.4330 H   0  0  0  0  0  0  0  0  0  0  0  0
   -5.4227  -18.8074   18.1007 H   0  0  0  0  0  0  0  0  0  0  0  0
   -3.1424  -20.1518   17.5770 H   0  0  0  0  0  0  0  0  0  0  0  0
   -0.7625  -19.5931   17.5736 H   0  0  0  0  0  0  0  0  0  0  0  0
  1  2  1  0
  2  3  1  0
  3  4  1  0
  4  5  2  0
  5  6  1  0
  6  7  2  0
  7  8  1  0
  8  9  2  0
  3 10  1  0
 10 11  1  0
 10 12  1  0
 12 13  2  0
 12 14  1  0
 14 15  1  0
 15 16  2  0
 16 17  1  0
 17 18  2  0
 18 19  1  0
 19 20  1  0
 20 21  1  0
 21 22  2  0
 22 23  1  0
  9  4  1  0
 23 15  1  0
 23 19  2  0
  1 24  1  0
  1 25  1  0
  1 26  1  0
  2 27  1  0
  2 28  1  0
  3 29  1  0
  5 30  1  0
  6 31  1  0
  7 32  1  0
  8 33  1  0
  9 34  1  0
 10 35  1  0
 11 36  1  0
 11 37  1  0
 14 38  1  0
 16 39  1  0
 17 40  1  0
 18 41  1  0
 20 42  1  0
 21 43  1  0
M  END
>  <Energy>  (178) 
554.25800176585972

>  <compound_id>  (178) 
77335

>  <target_id>  (178) 
1

>  <reference_id>  (178) 
76

>  <inspiration_ids>  (178) 
[52, 76]

>  <energy_score>  (178) 
414.1508085898031

>  <distance_score>  (178) 
16.01016456476532

>  <path>  (178) 
/opt/xchem-fragalysis-2/maxwin/BulkDock/SCRATCH/511025/C77335-P76/C77335-P76.minimised.mol

>  <scratch_subdir>  (178) 
/opt/xchem-fragalysis-2/maxwin/BulkDock/SCRATCH/511025/C77335-P76

>  <fragmenstein_runtime>  (178) 
28.179170608520508

>  <fragmenstein_outcome>  (178) 
too moved

>  <fragmenstein_mode>  (178) 
expansion

>  <fragmenstein_error>  (178) 


$$$$
C77336-P52
     RDKit          3D

 39 41  0  0  0  0  0  0  0  0999 V2000
   -9.7068   -7.8638   19.1662 C   0  0  0  0  0  0  0  0  0  0  0  0
   -8.3403   -7.2730   19.4647 C   0  0  0  0  0  0  0  0  0  0  0  0
   -7.5647   -8.1514   20.2821 O   0  0  0  0  0  0  0  0  0  0  0  0
   -6.9719   -9.2524   19.5516 C   0  0  0  0  0  0  0  0  0  0  0  0
   -7.6945  -10.6612   20.0728 C   0  0  0  0  0  0  0  0  0  0  0  0
   -7.7182  -11.5797   19.2914 O   0  0  0  0  0  0  0  0  0  0  0  0
   -8.2034  -10.5630   21.4628 N   0  0  0  0  0  0  0  0  0  0  0  0
   -8.7768  -11.5363   22.3077 C   0  0  0  0  0  0  0  0  0  0  0  0
   -9.3004  -12.7229   22.0432 N   0  0  0  0  0  0  0  0  0  0  0  0
   -9.5350  -13.3767   23.2576 C   0  0  0  0  0  0  0  0  0  0  0  0
   -9.9895  -14.6834   23.5395 C   0  0  0  0  0  0  0  0  0  0  0  0
  -10.0961  -15.1129   24.8737 C   0  0  0  0  0  0  0  0  0  0  0  0
   -9.7566  -14.2611   25.9215 C   0  0  0  0  0  0  0  0  0  0  0  0
   -9.3041  -12.9561   25.6613 C   0  0  0  0  0  0  0  0  0  0  0  0
   -9.2064  -12.5494   24.3161 C   0  0  0  0  0  0  0  0  0  0  0  0
   -8.8103  -11.3728   23.6973 N   0  0  0  0  0  0  0  0  0  0  0  0
   -5.3760   -9.0628   19.3959 C   0  0  0  0  0  0  0  0  0  0  0  0
   -4.7013   -7.8763   19.8041 C   0  0  0  0  0  0  0  0  0  0  0  0
   -3.3151   -7.6503   19.5917 C   0  0  0  0  0  0  0  0  0  0  0  0
   -2.5431   -8.6030   18.9408 C   0  0  0  0  0  0  0  0  0  0  0  0
   -3.1726   -9.7621   18.4907 C   0  0  0  0  0  0  0  0  0  0  0  0
   -4.5626   -9.9789   18.7027 C   0  0  0  0  0  0  0  0  0  0  0  0
  -10.3269   -7.1455   18.6223 H   0  0  0  0  0  0  0  0  0  0  0  0
  -10.2170   -8.1397   20.0949 H   0  0  0  0  0  0  0  0  0  0  0  0
   -9.6260   -8.7738   18.5641 H   0  0  0  0  0  0  0  0  0  0  0  0
   -7.7989   -7.0148   18.5476 H   0  0  0  0  0  0  0  0  0  0  0  0
   -8.4726   -6.3473   20.0344 H   0  0  0  0  0  0  0  0  0  0  0  0
   -7.3118   -9.1911   18.5060 H   0  0  0  0  0  0  0  0  0  0  0  0
   -8.0877   -9.6164   21.7905 H   0  0  0  0  0  0  0  0  0  0  0  0
  -10.2424  -15.3466   22.7181 H   0  0  0  0  0  0  0  0  0  0  0  0
  -10.4494  -16.1153   25.0733 H   0  0  0  0  0  0  0  0  0  0  0  0
   -9.8461  -14.6001   26.9514 H   0  0  0  0  0  0  0  0  0  0  0  0
   -9.0371  -12.2869   26.4743 H   0  0  0  0  0  0  0  0  0  0  0  0
   -8.4722  -10.5596   24.1868 H   0  0  0  0  0  0  0  0  0  0  0  0
   -5.2671   -7.0971   20.3129 H   0  0  0  0  0  0  0  0  0  0  0  0
   -2.8622   -6.7264   19.9413 H   0  0  0  0  0  0  0  0  0  0  0  0
   -1.4810   -8.4466   18.7791 H   0  0  0  0  0  0  0  0  0  0  0  0
   -2.5969  -10.5180   17.9610 H   0  0  0  0  0  0  0  0  0  0  0  0
   -5.0108  -10.8923   18.3175 H   0  0  0  0  0  0  0  0  0  0  0  0
  1  2  1  0
  2  3  1  0
  3  4  1  0
  4  5  1  0
  5  6  2  0
  5  7  1  0
  7  8  1  0
  8  9  2  0
  9 10  1  0
 10 11  2  0
 11 12  1  0
 12 13  2  0
 13 14  1  0
 14 15  2  0
 15 16  1  0
  4 17  1  0
 17 18  2  0
 18 19  1  0
 19 20  2  0
 20 21  1  0
 21 22  2  0
 16  8  1  0
 22 17  1  0
 15 10  1  0
  1 23  1  0
  1 24  1  0
  1 25  1  0
  2 26  1  0
  2 27  1  0
  4 28  1  0
  7 29  1  0
 11 30  1  0
 12 31  1  0
 13 32  1  0
 14 33  1  0
 16 34  1  0
 18 35  1  0
 19 36  1  0
 20 37  1  0
 21 38  1  0
 22 39  1  0
M  END
>  <Energy>  (179) 
81.795787163261622

>  <compound_id>  (179) 
77336

>  <target_id>  (179) 
1

>  <reference_id>  (179) 
52

>  <inspiration_ids>  (179) 
[52, 76]

>  <energy_score>  (179) 
5.205065758104865

>  <distance_score>  (179) 
16.066389171433325

>  <path>  (179) 
/opt/xchem-fragalysis-2/maxwin/BulkDock/SCRATCH/511025/C77336-P52/C77336-P52.minimised.mol

>  <scratch_subdir>  (179) 
/opt/xchem-fragalysis-2/maxwin/BulkDock/SCRATCH/511025/C77336-P52

>  <fragmenstein_runtime>  (179) 
25.64738917350769

>  <fragmenstein_outcome>  (179) 
too moved

>  <fragmenstein_mode>  (179) 
expansion

>  <fragmenstein_error>  (179) 


$$$$
C77336-P76
     RDKit          3D

 39 41  0  0  0  0  0  0  0  0999 V2000
    0.3700   -9.0492   28.8539 C   0  0  0  0  0  0  0  0  0  0  0  0
    0.1669  -10.5530   28.8711 C   0  0  0  0  0  0  0  0  0  0  0  0
    1.1336  -11.1094   29.7529 O   0  0  0  0  0  0  0  0  0  0  0  0
    1.9546  -12.1331   29.1680 C   0  0  0  0  0  0  0  0  0  0  0  0
    1.1853  -13.5658   29.0512 C   0  0  0  0  0  0  0  0  0  0  0  0
    1.6992  -14.4191   28.3842 O   0  0  0  0  0  0  0  0  0  0  0  0
   -0.0245  -13.6062   29.9002 N   0  0  0  0  0  0  0  0  0  0  0  0
   -0.9728  -14.6226   30.1003 C   0  0  0  0  0  0  0  0  0  0  0  0
   -1.0652  -15.8188   29.5443 N   0  0  0  0  0  0  0  0  0  0  0  0
   -2.1766  -16.4623   30.0875 C   0  0  0  0  0  0  0  0  0  0  0  0
   -2.7270  -17.7384   29.8408 C   0  0  0  0  0  0  0  0  0  0  0  0
   -3.8701  -18.1551   30.5460 C   0  0  0  0  0  0  0  0  0  0  0  0
   -4.4639  -17.3154   31.4856 C   0  0  0  0  0  0  0  0  0  0  0  0
   -3.9373  -16.0386   31.7422 C   0  0  0  0  0  0  0  0  0  0  0  0
   -2.7939  -15.6453   31.0211 C   0  0  0  0  0  0  0  0  0  0  0  0
   -2.0329  -14.4893   30.9949 N   0  0  0  0  0  0  0  0  0  0  0  0
    2.9185  -11.5736   28.0163 C   0  0  0  0  0  0  0  0  0  0  0  0
    3.7808  -10.4736   28.2795 C   0  0  0  0  0  0  0  0  0  0  0  0
    4.7176   -9.9827   27.3374 C   0  0  0  0  0  0  0  0  0  0  0  0
    4.8408  -10.5926   26.0959 C   0  0  0  0  0  0  0  0  0  0  0  0
    3.9979  -11.6621   25.7965 C   0  0  0  0  0  0  0  0  0  0  0  0
    3.0403  -12.1263   26.7338 C   0  0  0  0  0  0  0  0  0  0  0  0
    0.2311   -8.6332   29.8575 H   0  0  0  0  0  0  0  0  0  0  0  0
    1.3874   -8.7914   28.5458 H   0  0  0  0  0  0  0  0  0  0  0  0
   -0.3276   -8.5591   28.1736 H   0  0  0  0  0  0  0  0  0  0  0  0
    0.2187  -10.9888   27.8709 H   0  0  0  0  0  0  0  0  0  0  0  0
   -0.8248  -10.7788   29.2751 H   0  0  0  0  0  0  0  0  0  0  0  0
    2.6771  -12.3680   29.9656 H   0  0  0  0  0  0  0  0  0  0  0  0
   -0.1187  -12.7229   30.3861 H   0  0  0  0  0  0  0  0  0  0  0  0
   -2.2685  -18.3865   29.1016 H   0  0  0  0  0  0  0  0  0  0  0  0
   -4.3002  -19.1353   30.3502 H   0  0  0  0  0  0  0  0  0  0  0  0
   -5.3525  -17.6563   32.0160 H   0  0  0  0  0  0  0  0  0  0  0  0
   -4.4068  -15.3834   32.4679 H   0  0  0  0  0  0  0  0  0  0  0  0
   -2.2065  -13.6780   31.5632 H   0  0  0  0  0  0  0  0  0  0  0  0
    3.7400   -9.9983   29.2601 H   0  0  0  0  0  0  0  0  0  0  0  0
    5.3605   -9.1472   27.6025 H   0  0  0  0  0  0  0  0  0  0  0  0
    5.5700  -10.2445   25.3709 H   0  0  0  0  0  0  0  0  0  0  0  0
    4.0624  -12.1504   24.8252 H   0  0  0  0  0  0  0  0  0  0  0  0
    2.3975  -12.9523   26.4442 H   0  0  0  0  0  0  0  0  0  0  0  0
  1  2  1  0
  2  3  1  0
  3  4  1  0
  4  5  1  0
  5  6  2  0
  5  7  1  0
  7  8  1  0
  8  9  2  0
  9 10  1  0
 10 11  2  0
 11 12  1  0
 12 13  2  0
 13 14  1  0
 14 15  2  0
 15 16  1  0
  4 17  1  0
 17 18  2  0
 18 19  1  0
 19 20  2  0
 20 21  1  0
 21 22  2  0
 16  8  1  0
 22 17  1  0
 15 10  1  0
  1 23  1  0
  1 24  1  0
  1 25  1  0
  2 26  1  0
  2 27  1  0
  4 28  1  0
  7 29  1  0
 11 30  1  0
 12 31  1  0
 13 32  1  0
 14 33  1  0
 16 34  1  0
 18 35  1  0
 19 36  1  0
 20 37  1  0
 21 38  1  0
 22 39  1  0
M  END
>  <Energy>  (180) 
76.148956061637662

>  <compound_id>  (180) 
77336

>  <target_id>  (180) 
1

>  <reference_id>  (180) 
76

>  <inspiration_ids>  (180) 
[52, 76]

>  <energy_score>  (180) 
-0.44176534352135377

>  <distance_score>  (180) 
14.424250258646735

>  <path>  (180) 
/opt/xchem-fragalysis-2/maxwin/BulkDock/SCRATCH/511025/C77336-P76/C77336-P76.minimised.mol

>  <scratch_subdir>  (180) 
/opt/xchem-fragalysis-2/maxwin/BulkDock/SCRATCH/511025/C77336-P76

>  <fragmenstein_runtime>  (180) 
27.702836751937866

>  <fragmenstein_outcome>  (180) 
too moved

>  <fragmenstein_mode>  (180) 
expansion

>  <fragmenstein_error>  (180) 


$$$$
C77337-P52
     RDKit          3D

 45 47  0  0  0  0  0  0  0  0999 V2000
    3.5254   -8.7761   20.7430 C   0  0  0  0  0  0  0  0  0  0  0  0
    3.4548   -9.2643   22.1880 C   0  0  0  0  0  0  0  0  0  0  0  0
    2.2268   -9.8523   22.7850 O   0  0  0  0  0  0  0  0  0  0  0  0
    1.6873  -11.1991   22.8602 C   0  0  0  0  0  0  0  0  0  0  0  0
    0.5565  -12.8637   22.9456 C   0  0  0  0  0  0  0  0  0  0  0  0
    1.1589  -13.7359   22.4012 O   0  0  0  0  0  0  0  0  0  0  0  0
   -1.1446  -13.1654   23.7030 N   0  0  0  0  0  0  0  0  0  0  0  0
   -2.1728  -14.7441   23.9165 C   0  0  0  0  0  0  0  0  0  0  0  0
   -3.2278  -14.7292   24.5891 N   0  0  0  0  0  0  0  0  0  0  0  0
   -2.5592  -15.3715   25.9037 C   0  0  0  0  0  0  0  0  0  0  0  0
   -2.2650  -14.4359   26.8700 C   0  0  0  0  0  0  0  0  0  0  0  0
   -2.2434  -15.6547   27.1383 C   0  0  0  0  0  0  0  0  0  0  0  0
   -0.6935  -16.2256   27.1290 C   0  0  0  0  0  0  0  0  0  0  0  0
   -0.3830  -17.1964   26.4246 C   0  0  0  0  0  0  0  0  0  0  0  0
   -1.2203  -16.4602   25.6328 C   0  0  0  0  0  0  0  0  0  0  0  0
   -2.2396  -16.4714   24.8307 N   0  0  0  0  0  0  0  0  0  0  0  0
   -2.6966  -18.2779   25.3157 C   0  0  0  0  0  0  0  0  0  0  0  0
   -4.0330  -19.2615   25.6824 C   0  0  0  0  0  0  0  0  0  0  0  0
    3.2817  -11.9468   22.3164 C   0  0  0  0  0  0  0  0  0  0  0  0
    3.7616  -11.8702   20.9813 C   0  0  0  0  0  0  0  0  0  0  0  0
    5.1183  -12.0006   20.6024 C   0  0  0  0  0  0  0  0  0  0  0  0
    6.0751  -12.2750   21.5586 C   0  0  0  0  0  0  0  0  0  0  0  0
    5.6486  -12.4811   22.8644 C   0  0  0  0  0  0  0  0  0  0  0  0
    4.2846  -12.3432   23.2294 C   0  0  0  0  0  0  0  0  0  0  0  0
    4.5452   -8.4331   20.5317 H   0  0  0  0  0  0  0  0  0  0  0  0
    2.8756   -7.9159   20.5635 H   0  0  0  0  0  0  0  0  0  0  0  0
    3.2836   -9.5246   20.0042 H   0  0  0  0  0  0  0  0  0  0  0  0
    4.3657   -9.7982   22.4651 H   0  0  0  0  0  0  0  0  0  0  0  0
    3.5699   -8.3151   22.7327 H   0  0  0  0  0  0  0  0  0  0  0  0
    1.2483  -10.8368   21.9396 H   0  0  0  0  0  0  0  0  0  0  0  0
   -1.4458  -12.3291   24.1841 H   0  0  0  0  0  0  0  0  0  0  0  0
   -2.5786  -13.4653   26.7274 H   0  0  0  0  0  0  0  0  0  0  0  0
   -3.1450  -16.3367   27.2795 H   0  0  0  0  0  0  0  0  0  0  0  0
    0.2725  -15.7392   27.4109 H   0  0  0  0  0  0  0  0  0  0  0  0
    0.6587  -17.4327   26.2278 H   0  0  0  0  0  0  0  0  0  0  0  0
   -2.3090  -18.9779   24.5527 H   0  0  0  0  0  0  0  0  0  0  0  0
   -2.2330  -18.3319   26.3008 H   0  0  0  0  0  0  0  0  0  0  0  0
   -4.3670  -19.1012   26.7156 H   0  0  0  0  0  0  0  0  0  0  0  0
   -3.6798  -20.2994   25.6430 H   0  0  0  0  0  0  0  0  0  0  0  0
   -4.8768  -19.1702   24.9997 H   0  0  0  0  0  0  0  0  0  0  0  0
    3.0879  -11.6636   20.1804 H   0  0  0  0  0  0  0  0  0  0  0  0
    5.3957  -11.8914   19.5578 H   0  0  0  0  0  0  0  0  0  0  0  0
    7.1201  -12.3845   21.2901 H   0  0  0  0  0  0  0  0  0  0  0  0
    6.3716  -12.7539   23.6299 H   0  0  0  0  0  0  0  0  0  0  0  0
    4.0538  -12.5148   24.2747 H   0  0  0  0  0  0  0  0  0  0  0  0
  1  2  1  0
  2  3  1  0
  3  4  1  0
  4  5  1  0
  5  6  2  0
  5  7  1  0
  7  8  1  0
  8  9  2  0
  9 10  1  0
 10 11  2  0
 11 12  1  0
 12 13  2  0
 13 14  1  0
 14 15  2  0
 15 16  1  0
 16 17  1  0
 17 18  1  0
  4 19  1  0
 19 20  2  0
 20 21  1  0
 21 22  2  0
 22 23  1  0
 23 24  2  0
 16  8  1  0
 24 19  1  0
 15 10  1  0
  1 25  1  0
  1 26  1  0
  1 27  1  0
  2 28  1  0
  2 29  1  0
  4 30  1  0
  7 31  1  0
 11 32  1  0
 12 33  1  0
 13 34  1  0
 14 35  1  0
 17 36  1  0
 17 37  1  0
 18 38  1  0
 18 39  1  0
 18 40  1  0
 20 41  1  0
 21 42  1  0
 22 43  1  0
 23 44  1  0
 24 45  1  0
M  END
>  <Energy>  (181) 
1179.4474349535278

>  <compound_id>  (181) 
77337

>  <target_id>  (181) 
1

>  <reference_id>  (181) 
52

>  <inspiration_ids>  (181) 
[52, 76]

>  <energy_score>  (181) 
1069.2849701916912

>  <distance_score>  (181) 
13.659691755167795

>  <path>  (181) 
/opt/xchem-fragalysis-2/maxwin/BulkDock/SCRATCH/511025/C77337-P52/C77337-P52.minimised.mol

>  <scratch_subdir>  (181) 
/opt/xchem-fragalysis-2/maxwin/BulkDock/SCRATCH/511025/C77337-P52

>  <fragmenstein_runtime>  (181) 
34.18631362915039

>  <fragmenstein_outcome>  (181) 
too moved

>  <fragmenstein_mode>  (181) 
expansion

>  <fragmenstein_error>  (181) 


$$$$
C77337-P76
     RDKit          3D

 45 47  0  0  0  0  0  0  0  0999 V2000
   -2.4191  -11.1744   32.6955 C   0  0  0  0  0  0  0  0  0  0  0  0
   -1.3242  -11.8047   31.8563 C   0  0  0  0  0  0  0  0  0  0  0  0
   -1.8257  -11.9586   30.5254 O   0  0  0  0  0  0  0  0  0  0  0  0
   -0.9453  -12.7219   29.6728 C   0  0  0  0  0  0  0  0  0  0  0  0
   -0.9635  -14.2961   30.1037 C   0  0  0  0  0  0  0  0  0  0  0  0
    0.0408  -14.9463   29.9653 O   0  0  0  0  0  0  0  0  0  0  0  0
   -2.3424  -14.7074   30.5383 N   0  0  0  0  0  0  0  0  0  0  0  0
   -2.8337  -15.9496   30.9851 C   0  0  0  0  0  0  0  0  0  0  0  0
   -2.1080  -17.0500   31.0825 N   0  0  0  0  0  0  0  0  0  0  0  0
   -2.8968  -18.0389   31.6354 C   0  0  0  0  0  0  0  0  0  0  0  0
   -2.5878  -19.3729   31.9658 C   0  0  0  0  0  0  0  0  0  0  0  0
   -3.5516  -20.1813   32.5871 C   0  0  0  0  0  0  0  0  0  0  0  0
   -4.8065  -19.6668   32.8870 C   0  0  0  0  0  0  0  0  0  0  0  0
   -5.1341  -18.3464   32.5576 C   0  0  0  0  0  0  0  0  0  0  0  0
   -4.1643  -17.5602   31.9075 C   0  0  0  0  0  0  0  0  0  0  0  0
   -4.1511  -16.2665   31.3943 N   0  0  0  0  0  0  0  0  0  0  0  0
   -5.3589  -15.4553   31.3752 C   0  0  0  0  0  0  0  0  0  0  0  0
   -6.5393  -16.0765   30.6212 C   0  0  0  0  0  0  0  0  0  0  0  0
    0.3910  -11.8925   29.3938 C   0  0  0  0  0  0  0  0  0  0  0  0
    0.3059  -10.6092   28.7834 C   0  0  0  0  0  0  0  0  0  0  0  0
    1.4014   -9.7146   28.7056 C   0  0  0  0  0  0  0  0  0  0  0  0
    2.6365  -10.0867   29.2141 C   0  0  0  0  0  0  0  0  0  0  0  0
    2.7629  -11.3552   29.7844 C   0  0  0  0  0  0  0  0  0  0  0  0
    1.6644  -12.2495   29.8561 C   0  0  0  0  0  0  0  0  0  0  0  0
   -2.0895  -11.0398   33.7294 H   0  0  0  0  0  0  0  0  0  0  0  0
   -3.3179  -11.8001   32.6888 H   0  0  0  0  0  0  0  0  0  0  0  0
   -2.7053  -10.1997   32.2870 H   0  0  0  0  0  0  0  0  0  0  0  0
   -1.0478  -12.7734   32.2843 H   0  0  0  0  0  0  0  0  0  0  0  0
   -0.4480  -11.1491   31.8558 H   0  0  0  0  0  0  0  0  0  0  0  0
   -1.4372  -12.7421   28.6900 H   0  0  0  0  0  0  0  0  0  0  0  0
   -2.9664  -13.9129   30.4633 H   0  0  0  0  0  0  0  0  0  0  0  0
   -1.5956  -19.7557   31.7511 H   0  0  0  0  0  0  0  0  0  0  0  0
   -3.3060  -21.2070   32.8475 H   0  0  0  0  0  0  0  0  0  0  0  0
   -5.5536  -20.2907   33.3733 H   0  0  0  0  0  0  0  0  0  0  0  0
   -6.1187  -17.9660   32.8062 H   0  0  0  0  0  0  0  0  0  0  0  0
   -5.6351  -15.2741   32.4208 H   0  0  0  0  0  0  0  0  0  0  0  0
   -5.1037  -14.4814   30.9496 H   0  0  0  0  0  0  0  0  0  0  0  0
   -6.2252  -16.5241   29.6807 H   0  0  0  0  0  0  0  0  0  0  0  0
   -7.2938  -15.3114   30.4140 H   0  0  0  0  0  0  0  0  0  0  0  0
   -7.0211  -16.8552   31.2085 H   0  0  0  0  0  0  0  0  0  0  0  0
   -0.6647  -10.2774   28.4216 H   0  0  0  0  0  0  0  0  0  0  0  0
    1.2635   -8.7181   28.2937 H   0  0  0  0  0  0  0  0  0  0  0  0
    3.4841   -9.4087   29.1840 H   0  0  0  0  0  0  0  0  0  0  0  0
    3.7220  -11.6701   30.1936 H   0  0  0  0  0  0  0  0  0  0  0  0
    1.8179  -13.2148   30.3388 H   0  0  0  0  0  0  0  0  0  0  0  0
  1  2  1  0
  2  3  1  0
  3  4  1  0
  4  5  1  0
  5  6  2  0
  5  7  1  0
  7  8  1  0
  8  9  2  0
  9 10  1  0
 10 11  2  0
 11 12  1  0
 12 13  2  0
 13 14  1  0
 14 15  2  0
 15 16  1  0
 16 17  1  0
 17 18  1  0
  4 19  1  0
 19 20  2  0
 20 21  1  0
 21 22  2  0
 22 23  1  0
 23 24  2  0
 16  8  1  0
 24 19  1  0
 15 10  1  0
  1 25  1  0
  1 26  1  0
  1 27  1  0
  2 28  1  0
  2 29  1  0
  4 30  1  0
  7 31  1  0
 11 32  1  0
 12 33  1  0
 13 34  1  0
 14 35  1  0
 17 36  1  0
 17 37  1  0
 18 38  1  0
 18 39  1  0
 18 40  1  0
 20 41  1  0
 21 42  1  0
 22 43  1  0
 23 44  1  0
 24 45  1  0
M  END
>  <Energy>  (182) 
83.723751035565527

>  <compound_id>  (182) 
77337

>  <target_id>  (182) 
1

>  <reference_id>  (182) 
76

>  <inspiration_ids>  (182) 
[52, 76]

>  <energy_score>  (182) 
-26.438713726266485

>  <distance_score>  (182) 
15.469202236728815

>  <path>  (182) 
/opt/xchem-fragalysis-2/maxwin/BulkDock/SCRATCH/511025/C77337-P76/C77337-P76.minimised.mol

>  <scratch_subdir>  (182) 
/opt/xchem-fragalysis-2/maxwin/BulkDock/SCRATCH/511025/C77337-P76

>  <fragmenstein_runtime>  (182) 
31.89216685295105

>  <fragmenstein_outcome>  (182) 
too moved

>  <fragmenstein_mode>  (182) 
expansion

>  <fragmenstein_error>  (182) 


$$$$
C77338-P52
     RDKit          3D

 39 41  0  0  0  0  0  0  0  0999 V2000
    5.9964  -11.1854   21.1826 C   0  0  0  0  0  0  0  0  0  0  0  0
    5.2832  -12.5547   21.2250 C   0  0  0  0  0  0  0  0  0  0  0  0
    5.7028  -13.4478   22.2772 O   0  0  0  0  0  0  0  0  0  0  0  0
    6.7169  -14.4080   21.9213 C   0  0  0  0  0  0  0  0  0  0  0  0
    6.7794  -15.7119   22.9553 C   0  0  0  0  0  0  0  0  0  0  0  0
    7.8166  -16.0129   23.4850 O   0  0  0  0  0  0  0  0  0  0  0  0
    5.4499  -16.3852   22.9731 N   0  0  0  0  0  0  0  0  0  0  0  0
    5.0442  -17.6146   23.5361 C   0  0  0  0  0  0  0  0  0  0  0  0
    5.6134  -18.4273   24.4123 N   0  0  0  0  0  0  0  0  0  0  0  0
    4.7814  -19.5545   24.5658 C   0  0  0  0  0  0  0  0  0  0  0  0
    4.8223  -20.6843   25.4234 C   0  0  0  0  0  0  0  0  0  0  0  0
    5.8228  -20.8393   26.3031 F   0  0  0  0  0  0  0  0  0  0  0  0
    3.7997  -21.6560   25.3878 C   0  0  0  0  0  0  0  0  0  0  0  0
    2.7494  -21.5431   24.4766 C   0  0  0  0  0  0  0  0  0  0  0  0
    2.6754  -20.4361   23.6141 C   0  0  0  0  0  0  0  0  0  0  0  0
    3.6890  -19.4576   23.7146 C   0  0  0  0  0  0  0  0  0  0  0  0
    3.8254  -18.1936   23.1827 N   0  0  0  0  0  0  0  0  0  0  0  0
    8.0361  -13.6350   21.5998 C   0  0  0  0  0  0  0  0  0  0  0  0
    8.6648  -12.7993   22.5418 C   0  0  0  0  0  0  0  0  0  0  0  0
    9.7337  -11.9531   22.1823 C   0  0  0  0  0  0  0  0  0  0  0  0
   10.2065  -11.9279   20.8732 C   0  0  0  0  0  0  0  0  0  0  0  0
    9.6054  -12.7445   19.9197 C   0  0  0  0  0  0  0  0  0  0  0  0
    8.5359  -13.5861   20.2774 C   0  0  0  0  0  0  0  0  0  0  0  0
    6.9812  -11.2542   20.7216 H   0  0  0  0  0  0  0  0  0  0  0  0
    5.4103  -10.4788   20.5868 H   0  0  0  0  0  0  0  0  0  0  0  0
    6.1200  -10.7861   22.1936 H   0  0  0  0  0  0  0  0  0  0  0  0
    4.2228  -12.3603   21.4218 H   0  0  0  0  0  0  0  0  0  0  0  0
    5.3340  -13.0472   20.2474 H   0  0  0  0  0  0  0  0  0  0  0  0
    6.3953  -14.8831   20.9820 H   0  0  0  0  0  0  0  0  0  0  0  0
    4.7815  -15.8105   22.4851 H   0  0  0  0  0  0  0  0  0  0  0  0
    3.8640  -22.5065   26.0600 H   0  0  0  0  0  0  0  0  0  0  0  0
    1.9851  -22.3155   24.4327 H   0  0  0  0  0  0  0  0  0  0  0  0
    1.8459  -20.3076   22.9259 H   0  0  0  0  0  0  0  0  0  0  0  0
    3.1042  -17.7667   22.6228 H   0  0  0  0  0  0  0  0  0  0  0  0
    8.3008  -12.7854   23.5687 H   0  0  0  0  0  0  0  0  0  0  0  0
   10.1951  -11.3252   22.9404 H   0  0  0  0  0  0  0  0  0  0  0  0
   11.0403  -11.2871   20.6022 H   0  0  0  0  0  0  0  0  0  0  0  0
    9.9659  -12.7359   18.8938 H   0  0  0  0  0  0  0  0  0  0  0  0
    8.0777  -14.1944   19.4998 H   0  0  0  0  0  0  0  0  0  0  0  0
  1  2  1  0
  2  3  1  0
  3  4  1  0
  4  5  1  0
  5  6  2  0
  5  7  1  0
  7  8  1  0
  8  9  2  0
  9 10  1  0
 10 11  2  0
 11 12  1  0
 11 13  1  0
 13 14  2  0
 14 15  1  0
 15 16  2  0
 16 17  1  0
  4 18  1  0
 18 19  2  0
 19 20  1  0
 20 21  2  0
 21 22  1  0
 22 23  2  0
 17  8  1  0
 23 18  1  0
 16 10  1  0
  1 24  1  0
  1 25  1  0
  1 26  1  0
  2 27  1  0
  2 28  1  0
  4 29  1  0
  7 30  1  0
 13 31  1  0
 14 32  1  0
 15 33  1  0
 17 34  1  0
 19 35  1  0
 20 36  1  0
 21 37  1  0
 22 38  1  0
 23 39  1  0
M  END
>  <Energy>  (183) 
104.88623626891338

>  <compound_id>  (183) 
77338

>  <target_id>  (183) 
1

>  <reference_id>  (183) 
52

>  <inspiration_ids>  (183) 
[52, 76]

>  <energy_score>  (183) 
-16.100212808424658

>  <distance_score>  (183) 
16.228255420859224

>  <path>  (183) 
/opt/xchem-fragalysis-2/maxwin/BulkDock/SCRATCH/511025/C77338-P52/C77338-P52.minimised.mol

>  <scratch_subdir>  (183) 
/opt/xchem-fragalysis-2/maxwin/BulkDock/SCRATCH/511025/C77338-P52

>  <fragmenstein_runtime>  (183) 
24.648000955581665

>  <fragmenstein_outcome>  (183) 
too moved

>  <fragmenstein_mode>  (183) 
expansion

>  <fragmenstein_error>  (183) 


$$$$
C77338-P76
     RDKit          3D

 39 41  0  0  0  0  0  0  0  0999 V2000
    5.3815   -9.7638   23.6457 C   0  0  0  0  0  0  0  0  0  0  0  0
    4.3656  -10.4468   22.7264 C   0  0  0  0  0  0  0  0  0  0  0  0
    3.4320  -11.3937   23.3363 O   0  0  0  0  0  0  0  0  0  0  0  0
    3.3334  -12.8053   23.0160 C   0  0  0  0  0  0  0  0  0  0  0  0
    2.1766  -14.2591   23.4842 C   0  0  0  0  0  0  0  0  0  0  0  0
    2.8303  -15.2480   23.6285 O   0  0  0  0  0  0  0  0  0  0  0  0
    0.2848  -13.9355   23.7992 N   0  0  0  0  0  0  0  0  0  0  0  0
   -1.1051  -14.9769   24.5610 C   0  0  0  0  0  0  0  0  0  0  0  0
   -2.3300  -15.7499   24.6315 N   0  0  0  0  0  0  0  0  0  0  0  0
   -2.5615  -16.8979   25.9871 C   0  0  0  0  0  0  0  0  0  0  0  0
   -2.0078  -18.1584   26.5851 C   0  0  0  0  0  0  0  0  0  0  0  0
   -0.6847  -18.3698   26.5675 F   0  0  0  0  0  0  0  0  0  0  0  0
   -2.7216  -18.8876   27.5756 C   0  0  0  0  0  0  0  0  0  0  0  0
   -3.7547  -18.1487   28.1404 C   0  0  0  0  0  0  0  0  0  0  0  0
   -3.4494  -16.6832   28.0667 C   0  0  0  0  0  0  0  0  0  0  0  0
   -2.3612  -16.0208   27.1539 C   0  0  0  0  0  0  0  0  0  0  0  0
   -2.0808  -14.5719   26.0840 N   0  0  0  0  0  0  0  0  0  0  0  0
    4.7093  -13.2018   22.1917 C   0  0  0  0  0  0  0  0  0  0  0  0
    5.9775  -12.9194   22.7800 C   0  0  0  0  0  0  0  0  0  0  0  0
    7.1491  -12.7579   22.0143 C   0  0  0  0  0  0  0  0  0  0  0  0
    7.1039  -12.9345   20.6388 C   0  0  0  0  0  0  0  0  0  0  0  0
    5.9042  -13.3362   20.0539 C   0  0  0  0  0  0  0  0  0  0  0  0
    4.7328  -13.4919   20.8262 C   0  0  0  0  0  0  0  0  0  0  0  0
    4.8732   -9.1494   24.3939 H   0  0  0  0  0  0  0  0  0  0  0  0
    5.9802  -10.4912   24.1973 H   0  0  0  0  0  0  0  0  0  0  0  0
    6.0491   -9.1168   23.0689 H   0  0  0  0  0  0  0  0  0  0  0  0
    3.7630   -9.6164   22.3417 H   0  0  0  0  0  0  0  0  0  0  0  0
    4.8975  -10.8359   21.8611 H   0  0  0  0  0  0  0  0  0  0  0  0
    3.8096  -13.0773   23.9744 H   0  0  0  0  0  0  0  0  0  0  0  0
    0.0060  -13.0264   23.5076 H   0  0  0  0  0  0  0  0  0  0  0  0
   -2.4390  -19.8725   27.9108 H   0  0  0  0  0  0  0  0  0  0  0  0
   -4.4194  -18.5485   28.9014 H   0  0  0  0  0  0  0  0  0  0  0  0
   -3.6940  -16.2101   29.0143 H   0  0  0  0  0  0  0  0  0  0  0  0
   -1.7399  -13.7706   26.5826 H   0  0  0  0  0  0  0  0  0  0  0  0
    6.0334  -12.7351   23.8521 H   0  0  0  0  0  0  0  0  0  0  0  0
    8.0823  -12.4932   22.5036 H   0  0  0  0  0  0  0  0  0  0  0  0
    7.9988  -12.8174   20.0351 H   0  0  0  0  0  0  0  0  0  0  0  0
    5.8693  -13.5450   18.9867 H   0  0  0  0  0  0  0  0  0  0  0  0
    3.8360  -13.8487   20.3416 H   0  0  0  0  0  0  0  0  0  0  0  0
  1  2  1  0
  2  3  1  0
  3  4  1  0
  4  5  1  0
  5  6  2  0
  5  7  1  0
  7  8  1  0
  8  9  2  0
  9 10  1  0
 10 11  2  0
 11 12  1  0
 11 13  1  0
 13 14  2  0
 14 15  1  0
 15 16  2  0
 16 17  1  0
  4 18  1  0
 18 19  2  0
 19 20  1  0
 20 21  2  0
 21 22  1  0
 22 23  2  0
 17  8  1  0
 23 18  1  0
 16 10  1  0
  1 24  1  0
  1 25  1  0
  1 26  1  0
  2 27  1  0
  2 28  1  0
  4 29  1  0
  7 30  1  0
 13 31  1  0
 14 32  1  0
 15 33  1  0
 17 34  1  0
 19 35  1  0
 20 36  1  0
 21 37  1  0
 22 38  1  0
 23 39  1  0
M  END
>  <Energy>  (184) 
736.04332065448375

>  <compound_id>  (184) 
77338

>  <target_id>  (184) 
1

>  <reference_id>  (184) 
76

>  <inspiration_ids>  (184) 
[52, 76]

>  <energy_score>  (184) 
615.0568715771477

>  <distance_score>  (184) 
14.30007669138862

>  <path>  (184) 
/opt/xchem-fragalysis-2/maxwin/BulkDock/SCRATCH/511025/C77338-P76/C77338-P76.minimised.mol

>  <scratch_subdir>  (184) 
/opt/xchem-fragalysis-2/maxwin/BulkDock/SCRATCH/511025/C77338-P76

>  <fragmenstein_runtime>  (184) 
9.018317699432373

>  <fragmenstein_outcome>  (184) 
too moved

>  <fragmenstein_mode>  (184) 
expansion

>  <fragmenstein_error>  (184) 


$$$$
C77339-P52
     RDKit          3D

 48 50  0  0  0  0  0  0  0  0999 V2000
   -4.7672  -20.7774   25.3824 C   0  0  0  0  0  0  0  0  0  0  0  0
   -3.8986  -19.7539   26.1321 C   0  0  0  0  0  0  0  0  0  0  0  0
   -3.1120  -18.7837   25.1224 C   0  0  0  0  0  0  0  0  0  0  0  0
   -2.3697  -17.0500   25.3267 N   0  0  0  0  0  0  0  0  0  0  0  0
   -2.2298  -15.3993   24.3846 C   0  0  0  0  0  0  0  0  0  0  0  0
   -1.4592  -13.5520   23.8978 N   0  0  0  0  0  0  0  0  0  0  0  0
    0.2941  -12.9251   23.0222 C   0  0  0  0  0  0  0  0  0  0  0  0
    1.1154  -13.7401   22.5710 O   0  0  0  0  0  0  0  0  0  0  0  0
    1.0917  -11.0058   22.6612 C   0  0  0  0  0  0  0  0  0  0  0  0
    0.1528  -10.4792   21.4093 O   0  0  0  0  0  0  0  0  0  0  0  0
   -0.5939   -9.3763   20.5520 C   0  0  0  0  0  0  0  0  0  0  0  0
    0.1204   -8.5329   19.4682 C   0  0  0  0  0  0  0  0  0  0  0  0
    2.7635  -10.9759   22.0005 C   0  0  0  0  0  0  0  0  0  0  0  0
    3.3174   -9.8699   21.2724 C   0  0  0  0  0  0  0  0  0  0  0  0
    4.6650   -9.7702   20.8509 C   0  0  0  0  0  0  0  0  0  0  0  0
    5.5436  -10.7954   21.1300 C   0  0  0  0  0  0  0  0  0  0  0  0
    5.0523  -11.9090   21.8039 C   0  0  0  0  0  0  0  0  0  0  0  0
    3.6983  -11.9977   22.2255 C   0  0  0  0  0  0  0  0  0  0  0  0
   -0.9923  -16.3097   25.1563 N   0  0  0  0  0  0  0  0  0  0  0  0
   -0.7085  -16.6202   26.4858 C   0  0  0  0  0  0  0  0  0  0  0  0
    0.4896  -16.9522   27.2114 C   0  0  0  0  0  0  0  0  0  0  0  0
    0.6137  -18.1252   28.0153 C   0  0  0  0  0  0  0  0  0  0  0  0
   -0.4078  -19.0604   28.1143 C   0  0  0  0  0  0  0  0  0  0  0  0
   -1.5780  -18.8221   27.3824 C   0  0  0  0  0  0  0  0  0  0  0  0
   -1.7192  -17.4647   26.5028 C   0  0  0  0  0  0  0  0  0  0  0  0
   -5.4355  -21.2923   26.0784 H   0  0  0  0  0  0  0  0  0  0  0  0
   -5.3420  -20.3114   24.5857 H   0  0  0  0  0  0  0  0  0  0  0  0
   -4.1309  -21.5338   24.9088 H   0  0  0  0  0  0  0  0  0  0  0  0
   -3.2157  -20.4406   26.6331 H   0  0  0  0  0  0  0  0  0  0  0  0
   -4.5114  -19.2024   26.8488 H   0  0  0  0  0  0  0  0  0  0  0  0
   -3.9820  -18.5743   24.5494 H   0  0  0  0  0  0  0  0  0  0  0  0
   -2.4178  -19.3515   24.4964 H   0  0  0  0  0  0  0  0  0  0  0  0
   -1.9524  -12.7493   24.2802 H   0  0  0  0  0  0  0  0  0  0  0  0
    1.1804  -10.4213   23.5574 H   0  0  0  0  0  0  0  0  0  0  0  0
   -1.4376   -9.8680   20.0428 H   0  0  0  0  0  0  0  0  0  0  0  0
   -1.1381   -8.6672   21.1530 H   0  0  0  0  0  0  0  0  0  0  0  0
   -0.0239   -7.4666   19.6847 H   0  0  0  0  0  0  0  0  0  0  0  0
   -0.3533   -8.6897   18.4935 H   0  0  0  0  0  0  0  0  0  0  0  0
    1.1917   -8.6951   19.3763 H   0  0  0  0  0  0  0  0  0  0  0  0
    2.7157   -9.0421   20.9378 H   0  0  0  0  0  0  0  0  0  0  0  0
    4.9869   -8.9017   20.2856 H   0  0  0  0  0  0  0  0  0  0  0  0
    6.5777  -10.7574   20.8070 H   0  0  0  0  0  0  0  0  0  0  0  0
    5.7149  -12.7471   22.0117 H   0  0  0  0  0  0  0  0  0  0  0  0
    3.4110  -12.9079   22.7275 H   0  0  0  0  0  0  0  0  0  0  0  0
    1.3753  -16.3341   27.0829 H   0  0  0  0  0  0  0  0  0  0  0  0
    1.5489  -18.2948   28.5465 H   0  0  0  0  0  0  0  0  0  0  0  0
   -0.3276  -19.9122   28.7816 H   0  0  0  0  0  0  0  0  0  0  0  0
   -2.4636  -19.3228   27.7291 H   0  0  0  0  0  0  0  0  0  0  0  0
  1  2  1  0
  2  3  1  0
  3  4  1  0
  4  5  1  0
  5  6  1  0
  6  7  1  0
  7  8  2  0
  7  9  1  0
  9 10  1  0
 10 11  1  0
 11 12  1  0
  9 13  1  0
 13 14  2  0
 14 15  1  0
 15 16  2  0
 16 17  1  0
 17 18  2  0
  5 19  2  0
 19 20  1  0
 20 21  2  0
 21 22  1  0
 22 23  2  0
 23 24  1  0
 24 25  2  0
 25  4  1  0
 18 13  1  0
 25 20  1  0
  1 26  1  0
  1 27  1  0
  1 28  1  0
  2 29  1  0
  2 30  1  0
  3 31  1  0
  3 32  1  0
  6 33  1  0
  9 34  1  0
 11 35  1  0
 11 36  1  0
 12 37  1  0
 12 38  1  0
 12 39  1  0
 14 40  1  0
 15 41  1  0
 16 42  1  0
 17 43  1  0
 18 44  1  0
 21 45  1  0
 22 46  1  0
 23 47  1  0
 24 48  1  0
M  END
>  <Energy>  (185) 
1118.0804119424329

>  <compound_id>  (185) 
77339

>  <target_id>  (185) 
1

>  <reference_id>  (185) 
52

>  <inspiration_ids>  (185) 
[52, 76]

>  <energy_score>  (185) 
1022.7964102992498

>  <distance_score>  (185) 
13.148452389758317

>  <path>  (185) 
/opt/xchem-fragalysis-2/maxwin/BulkDock/SCRATCH/511025/C77339-P52/C77339-P52.minimised.mol

>  <scratch_subdir>  (185) 
/opt/xchem-fragalysis-2/maxwin/BulkDock/SCRATCH/511025/C77339-P52

>  <fragmenstein_runtime>  (185) 
20.738637924194336

>  <fragmenstein_outcome>  (185) 
too moved

>  <fragmenstein_mode>  (185) 
expansion

>  <fragmenstein_error>  (185) 


$$$$
C77339-P76
     RDKit          3D

 48 50  0  0  0  0  0  0  0  0999 V2000
   -6.3177  -16.5933   30.5037 C   0  0  0  0  0  0  0  0  0  0  0  0
   -5.1665  -17.3598   31.1259 C   0  0  0  0  0  0  0  0  0  0  0  0
   -3.7992  -17.2828   30.3799 C   0  0  0  0  0  0  0  0  0  0  0  0
   -2.6436  -17.7284   31.2163 N   0  0  0  0  0  0  0  0  0  0  0  0
   -1.8607  -16.8042   31.9449 C   0  0  0  0  0  0  0  0  0  0  0  0
   -0.9495  -15.8235   31.5375 N   0  0  0  0  0  0  0  0  0  0  0  0
    0.0407  -15.8130   30.4223 C   0  0  0  0  0  0  0  0  0  0  0  0
    0.2435  -16.6141   29.5496 O   0  0  0  0  0  0  0  0  0  0  0  0
    0.9133  -14.4114   30.5088 C   0  0  0  0  0  0  0  0  0  0  0  0
    0.0441  -13.2814   30.3067 O   0  0  0  0  0  0  0  0  0  0  0  0
   -0.4797  -13.2360   28.9758 C   0  0  0  0  0  0  0  0  0  0  0  0
   -1.2490  -11.9425   28.8158 C   0  0  0  0  0  0  0  0  0  0  0  0
    2.3056  -14.1113   29.8022 C   0  0  0  0  0  0  0  0  0  0  0  0
    2.9791  -12.8864   30.0993 C   0  0  0  0  0  0  0  0  0  0  0  0
    4.2757  -12.5764   29.6253 C   0  0  0  0  0  0  0  0  0  0  0  0
    4.9313  -13.4663   28.7841 C   0  0  0  0  0  0  0  0  0  0  0  0
    4.2814  -14.6511   28.4354 C   0  0  0  0  0  0  0  0  0  0  0  0
    2.9983  -14.9766   28.9528 C   0  0  0  0  0  0  0  0  0  0  0  0
   -2.2281  -16.9205   33.2161 N   0  0  0  0  0  0  0  0  0  0  0  0
   -2.8071  -18.1711   33.3435 C   0  0  0  0  0  0  0  0  0  0  0  0
   -3.2920  -18.8473   34.4777 C   0  0  0  0  0  0  0  0  0  0  0  0
   -3.7967  -20.1482   34.3354 C   0  0  0  0  0  0  0  0  0  0  0  0
   -3.8091  -20.7712   33.0878 C   0  0  0  0  0  0  0  0  0  0  0  0
   -3.3698  -20.1009   31.9367 C   0  0  0  0  0  0  0  0  0  0  0  0
   -2.8881  -18.7928   32.1034 C   0  0  0  0  0  0  0  0  0  0  0  0
   -7.1873  -16.6555   31.1586 H   0  0  0  0  0  0  0  0  0  0  0  0
   -6.6040  -16.9581   29.5236 H   0  0  0  0  0  0  0  0  0  0  0  0
   -6.0730  -15.5312   30.4212 H   0  0  0  0  0  0  0  0  0  0  0  0
   -5.0388  -16.9440   32.1336 H   0  0  0  0  0  0  0  0  0  0  0  0
   -5.4700  -18.3988   31.2686 H   0  0  0  0  0  0  0  0  0  0  0  0
   -3.7751  -17.8913   29.4728 H   0  0  0  0  0  0  0  0  0  0  0  0
   -3.5676  -16.2497   30.1112 H   0  0  0  0  0  0  0  0  0  0  0  0
   -0.7845  -15.0248   32.1370 H   0  0  0  0  0  0  0  0  0  0  0  0
    1.1934  -14.3767   31.5728 H   0  0  0  0  0  0  0  0  0  0  0  0
   -1.1516  -14.0836   28.8117 H   0  0  0  0  0  0  0  0  0  0  0  0
    0.3264  -13.2675   28.2362 H   0  0  0  0  0  0  0  0  0  0  0  0
   -1.6761  -11.8702   27.8120 H   0  0  0  0  0  0  0  0  0  0  0  0
   -0.5958  -11.0804   28.9860 H   0  0  0  0  0  0  0  0  0  0  0  0
   -2.0565  -11.8846   29.5524 H   0  0  0  0  0  0  0  0  0  0  0  0
    2.4904  -12.1720   30.7631 H   0  0  0  0  0  0  0  0  0  0  0  0
    4.7522  -11.6451   29.9187 H   0  0  0  0  0  0  0  0  0  0  0  0
    5.9225  -13.2475   28.3994 H   0  0  0  0  0  0  0  0  0  0  0  0
    4.7763  -15.3611   27.7749 H   0  0  0  0  0  0  0  0  0  0  0  0
    2.5647  -15.9418   28.6927 H   0  0  0  0  0  0  0  0  0  0  0  0
   -3.2572  -18.3656   35.4484 H   0  0  0  0  0  0  0  0  0  0  0  0
   -4.1648  -20.6783   35.2102 H   0  0  0  0  0  0  0  0  0  0  0  0
   -4.1846  -21.7879   33.0111 H   0  0  0  0  0  0  0  0  0  0  0  0
   -3.4229  -20.5624   30.9590 H   0  0  0  0  0  0  0  0  0  0  0  0
  1  2  1  0
  2  3  1  0
  3  4  1  0
  4  5  1  0
  5  6  1  0
  6  7  1  0
  7  8  2  0
  7  9  1  0
  9 10  1  0
 10 11  1  0
 11 12  1  0
  9 13  1  0
 13 14  2  0
 14 15  1  0
 15 16  2  0
 16 17  1  0
 17 18  2  0
  5 19  2  0
 19 20  1  0
 20 21  2  0
 21 22  1  0
 22 23  2  0
 23 24  1  0
 24 25  2  0
 25  4  1  0
 18 13  1  0
 25 20  1  0
  1 26  1  0
  1 27  1  0
  1 28  1  0
  2 29  1  0
  2 30  1  0
  3 31  1  0
  3 32  1  0
  6 33  1  0
  9 34  1  0
 11 35  1  0
 11 36  1  0
 12 37  1  0
 12 38  1  0
 12 39  1  0
 14 40  1  0
 15 41  1  0
 16 42  1  0
 17 43  1  0
 18 44  1  0
 21 45  1  0
 22 46  1  0
 23 47  1  0
 24 48  1  0
M  END
>  <Energy>  (186) 
105.25106538306596

>  <compound_id>  (186) 
77339

>  <target_id>  (186) 
1

>  <reference_id>  (186) 
76

>  <inspiration_ids>  (186) 
[52, 76]

>  <energy_score>  (186) 
9.9670637398861

>  <distance_score>  (186) 
14.917938378602543

>  <path>  (186) 
/opt/xchem-fragalysis-2/maxwin/BulkDock/SCRATCH/511025/C77339-P76/C77339-P76.minimised.mol

>  <scratch_subdir>  (186) 
/opt/xchem-fragalysis-2/maxwin/BulkDock/SCRATCH/511025/C77339-P76

>  <fragmenstein_runtime>  (186) 
35.071476459503174

>  <fragmenstein_outcome>  (186) 
too moved

>  <fragmenstein_mode>  (186) 
expansion

>  <fragmenstein_error>  (186) 


$$$$
C77344-P52
     RDKit          3D

 39 41  0  0  0  0  0  0  0  0999 V2000
   -4.1121  -17.1301   17.5337 C   0  0  0  0  0  0  0  0  0  0  0  0
   -3.3252  -16.7088   18.7580 C   0  0  0  0  0  0  0  0  0  0  0  0
   -2.2332  -16.2392   18.6352 O   0  0  0  0  0  0  0  0  0  0  0  0
   -4.0946  -16.9905   19.9302 N   0  0  0  0  0  0  0  0  0  0  0  0
   -3.8342  -16.7087   21.3339 C   0  0  0  0  0  0  0  0  0  0  0  0
   -3.5836  -15.1931   21.5128 C   0  0  0  0  0  0  0  0  0  0  0  0
   -5.0578  -17.3026   22.1485 C   0  0  0  0  0  0  0  0  0  0  0  0
   -6.1412  -17.2706   21.6234 O   0  0  0  0  0  0  0  0  0  0  0  0
   -4.6331  -17.8792   23.4206 N   0  0  0  0  0  0  0  0  0  0  0  0
   -5.3421  -18.6523   24.3723 C   0  0  0  0  0  0  0  0  0  0  0  0
   -4.7573  -18.9274   25.6210 C   0  0  0  0  0  0  0  0  0  0  0  0
   -5.4019  -19.7035   26.6079 C   0  0  0  0  0  0  0  0  0  0  0  0
   -6.6508  -20.2246   26.2767 C   0  0  0  0  0  0  0  0  0  0  0  0
   -7.5533  -21.0015   26.9518 N   0  0  0  0  0  0  0  0  0  0  0  0
   -8.6297  -21.2343   26.1422 C   0  0  0  0  0  0  0  0  0  0  0  0
   -9.7578  -22.0083   26.5446 C   0  0  0  0  0  0  0  0  0  0  0  0
  -10.8758  -22.3481   25.8041 C   0  0  0  0  0  0  0  0  0  0  0  0
  -11.6907  -23.1628   26.6247 C   0  0  0  0  0  0  0  0  0  0  0  0
  -11.0433  -23.2527   27.8316 C   0  0  0  0  0  0  0  0  0  0  0  0
   -9.8739  -22.5659   27.7946 O   0  0  0  0  0  0  0  0  0  0  0  0
   -8.4676  -20.6465   24.9747 N   0  0  0  0  0  0  0  0  0  0  0  0
   -7.2475  -20.0128   25.0426 C   0  0  0  0  0  0  0  0  0  0  0  0
   -6.6035  -19.1988   24.0887 C   0  0  0  0  0  0  0  0  0  0  0  0
   -4.3588  -18.1940   17.5934 H   0  0  0  0  0  0  0  0  0  0  0  0
   -3.5104  -16.9631   16.6353 H   0  0  0  0  0  0  0  0  0  0  0  0
   -5.0270  -16.5358   17.4567 H   0  0  0  0  0  0  0  0  0  0  0  0
   -5.0195  -17.3128   19.6508 H   0  0  0  0  0  0  0  0  0  0  0  0
   -2.9311  -17.2711   21.5881 H   0  0  0  0  0  0  0  0  0  0  0  0
   -3.5685  -14.9307   22.5743 H   0  0  0  0  0  0  0  0  0  0  0  0
   -2.6478  -14.8902   21.0368 H   0  0  0  0  0  0  0  0  0  0  0  0
   -4.3959  -14.6185   21.0529 H   0  0  0  0  0  0  0  0  0  0  0  0
   -3.6589  -17.6460   23.5817 H   0  0  0  0  0  0  0  0  0  0  0  0
   -3.7707  -18.5292   25.8530 H   0  0  0  0  0  0  0  0  0  0  0  0
   -4.9269  -19.8950   27.5624 H   0  0  0  0  0  0  0  0  0  0  0  0
   -7.4613  -21.3509   27.8898 H   0  0  0  0  0  0  0  0  0  0  0  0
  -11.0663  -22.0412   24.7840 H   0  0  0  0  0  0  0  0  0  0  0  0
  -12.6365  -23.6136   26.3612 H   0  0  0  0  0  0  0  0  0  0  0  0
  -11.2651  -23.7446   28.7681 H   0  0  0  0  0  0  0  0  0  0  0  0
   -7.0907  -19.0367   23.1333 H   0  0  0  0  0  0  0  0  0  0  0  0
  1  2  1  0
  2  3  2  0
  2  4  1  0
  4  5  1  0
  5  6  1  0
  5  7  1  0
  7  8  2  0
  7  9  1  0
  9 10  1  0
 10 11  2  0
 11 12  1  0
 12 13  2  0
 13 14  1  0
 14 15  1  0
 15 16  1  0
 16 17  2  0
 17 18  1  0
 18 19  2  0
 19 20  1  0
 15 21  2  0
 21 22  1  0
 22 23  2  0
 23 10  1  0
 22 13  1  0
 20 16  1  0
  1 24  1  0
  1 25  1  0
  1 26  1  0
  4 27  1  0
  5 28  1  0
  6 29  1  0
  6 30  1  0
  6 31  1  0
  9 32  1  0
 11 33  1  0
 12 34  1  0
 14 35  1  0
 17 36  1  0
 18 37  1  0
 19 38  1  0
 23 39  1  0
M  END
>  <Energy>  (187) 
19.762048384587917

>  <compound_id>  (187) 
77344

>  <target_id>  (187) 
1

>  <reference_id>  (187) 
52

>  <inspiration_ids>  (187) 
[52, 76]

>  <energy_score>  (187) 
-32.41756380937045

>  <distance_score>  (187) 
20.028509556134658

>  <path>  (187) 
/opt/xchem-fragalysis-2/maxwin/BulkDock/SCRATCH/511025/C77344-P52/C77344-P52.minimised.mol

>  <scratch_subdir>  (187) 
/opt/xchem-fragalysis-2/maxwin/BulkDock/SCRATCH/511025/C77344-P52

>  <fragmenstein_runtime>  (187) 
36.91194772720337

>  <fragmenstein_outcome>  (187) 
too moved

>  <fragmenstein_mode>  (187) 
expansion

>  <fragmenstein_error>  (187) 


$$$$
C77344-P76
     RDKit          3D

 39 41  0  0  0  0  0  0  0  0999 V2000
    1.7763  -16.4696   29.7977 C   0  0  0  0  0  0  0  0  0  0  0  0
    0.5431  -16.1963   28.9613 C   0  0  0  0  0  0  0  0  0  0  0  0
   -0.0719  -17.1053   28.4871 O   0  0  0  0  0  0  0  0  0  0  0  0
    0.3389  -14.7841   28.8721 N   0  0  0  0  0  0  0  0  0  0  0  0
   -0.7333  -14.0089   28.2573 C   0  0  0  0  0  0  0  0  0  0  0  0
   -0.2079  -12.5895   27.9065 C   0  0  0  0  0  0  0  0  0  0  0  0
   -2.0287  -14.0821   29.1766 C   0  0  0  0  0  0  0  0  0  0  0  0
   -2.5290  -13.0695   29.5883 O   0  0  0  0  0  0  0  0  0  0  0  0
   -2.4363  -15.4872   29.3360 N   0  0  0  0  0  0  0  0  0  0  0  0
   -3.4787  -16.0701   30.0940 C   0  0  0  0  0  0  0  0  0  0  0  0
   -3.6060  -17.4746   30.0633 C   0  0  0  0  0  0  0  0  0  0  0  0
   -4.5569  -18.1719   30.8333 C   0  0  0  0  0  0  0  0  0  0  0  0
   -5.3668  -17.3989   31.6589 C   0  0  0  0  0  0  0  0  0  0  0  0
   -6.3357  -17.7211   32.5736 N   0  0  0  0  0  0  0  0  0  0  0  0
   -6.7997  -16.5627   33.1347 C   0  0  0  0  0  0  0  0  0  0  0  0
   -7.7916  -16.5275   34.1604 C   0  0  0  0  0  0  0  0  0  0  0  0
   -8.4061  -15.4210   34.7219 C   0  0  0  0  0  0  0  0  0  0  0  0
   -9.3403  -15.8963   35.6719 C   0  0  0  0  0  0  0  0  0  0  0  0
   -9.2410  -17.2654   35.6455 C   0  0  0  0  0  0  0  0  0  0  0  0
   -8.3040  -17.6579   34.7464 O   0  0  0  0  0  0  0  0  0  0  0  0
   -6.2236  -15.5104   32.5903 N   0  0  0  0  0  0  0  0  0  0  0  0
   -5.3039  -16.0132   31.6981 C   0  0  0  0  0  0  0  0  0  0  0  0
   -4.3573  -15.3351   30.8976 C   0  0  0  0  0  0  0  0  0  0  0  0
    1.6200  -16.1119   30.8192 H   0  0  0  0  0  0  0  0  0  0  0  0
    2.6466  -15.9763   29.3553 H   0  0  0  0  0  0  0  0  0  0  0  0
    1.9666  -17.5465   29.8297 H   0  0  0  0  0  0  0  0  0  0  0  0
    1.0087  -14.3151   29.4719 H   0  0  0  0  0  0  0  0  0  0  0  0
   -1.0113  -14.5076   27.3224 H   0  0  0  0  0  0  0  0  0  0  0  0
    0.1380  -12.0706   28.8066 H   0  0  0  0  0  0  0  0  0  0  0  0
   -1.0072  -11.9927   27.4588 H   0  0  0  0  0  0  0  0  0  0  0  0
    0.6247  -12.6578   27.2048 H   0  0  0  0  0  0  0  0  0  0  0  0
   -1.8207  -16.0789   28.7794 H   0  0  0  0  0  0  0  0  0  0  0  0
   -2.9319  -18.0600   29.4385 H   0  0  0  0  0  0  0  0  0  0  0  0
   -4.6286  -19.2535   30.8093 H   0  0  0  0  0  0  0  0  0  0  0  0
   -6.7180  -18.6473   32.7370 H   0  0  0  0  0  0  0  0  0  0  0  0
   -8.2037  -14.3940   34.4500 H   0  0  0  0  0  0  0  0  0  0  0  0
  -10.0110  -15.3139   36.2867 H   0  0  0  0  0  0  0  0  0  0  0  0
   -9.7450  -18.0631   36.1718 H   0  0  0  0  0  0  0  0  0  0  0  0
   -4.3059  -14.2540   30.9564 H   0  0  0  0  0  0  0  0  0  0  0  0
  1  2  1  0
  2  3  2  0
  2  4  1  0
  4  5  1  0
  5  6  1  0
  5  7  1  0
  7  8  2  0
  7  9  1  0
  9 10  1  0
 10 11  2  0
 11 12  1  0
 12 13  2  0
 13 14  1  0
 14 15  1  0
 15 16  1  0
 16 17  2  0
 17 18  1  0
 18 19  2  0
 19 20  1  0
 15 21  2  0
 21 22  1  0
 22 23  2  0
 23 10  1  0
 22 13  1  0
 20 16  1  0
  1 24  1  0
  1 25  1  0
  1 26  1  0
  4 27  1  0
  5 28  1  0
  6 29  1  0
  6 30  1  0
  6 31  1  0
  9 32  1  0
 11 33  1  0
 12 34  1  0
 14 35  1  0
 17 36  1  0
 18 37  1  0
 19 38  1  0
 23 39  1  0
M  END
>  <Energy>  (188) 
14.496509701279608

>  <compound_id>  (188) 
77344

>  <target_id>  (188) 
1

>  <reference_id>  (188) 
76

>  <inspiration_ids>  (188) 
[52, 76]

>  <energy_score>  (188) 
-37.68310249267688

>  <distance_score>  (188) 
19.531927277347865

>  <path>  (188) 
/opt/xchem-fragalysis-2/maxwin/BulkDock/SCRATCH/511025/C77344-P76/C77344-P76.minimised.mol

>  <scratch_subdir>  (188) 
/opt/xchem-fragalysis-2/maxwin/BulkDock/SCRATCH/511025/C77344-P76

>  <fragmenstein_runtime>  (188) 
29.035571336746216

>  <fragmenstein_outcome>  (188) 
too moved

>  <fragmenstein_mode>  (188) 
expansion

>  <fragmenstein_error>  (188) 


$$$$
C77345-P52
     RDKit          3D

 39 41  0  0  0  0  0  0  0  0999 V2000
    6.6749  -10.0536   23.6290 C   0  0  0  0  0  0  0  0  0  0  0  0
    6.3357  -10.8402   24.8805 C   0  0  0  0  0  0  0  0  0  0  0  0
    7.2063  -10.8568   25.7202 O   0  0  0  0  0  0  0  0  0  0  0  0
    4.8847  -11.4045   24.9155 N   0  0  0  0  0  0  0  0  0  0  0  0
    3.9195  -12.1832   26.2858 C   0  0  0  0  0  0  0  0  0  0  0  0
    4.6189  -10.4867   27.0453 C   0  0  0  0  0  0  0  0  0  0  0  0
    3.2486  -14.0180   26.9381 C   0  0  0  0  0  0  0  0  0  0  0  0
    3.9770  -14.8463   27.1832 O   0  0  0  0  0  0  0  0  0  0  0  0
    1.6316  -14.2947   27.2664 N   0  0  0  0  0  0  0  0  0  0  0  0
    0.9149  -15.4400   27.9485 C   0  0  0  0  0  0  0  0  0  0  0  0
    1.4186  -16.7045   28.2460 C   0  0  0  0  0  0  0  0  0  0  0  0
    0.6551  -17.6962   28.9713 C   0  0  0  0  0  0  0  0  0  0  0  0
   -0.6430  -17.3762   29.4175 C   0  0  0  0  0  0  0  0  0  0  0  0
   -1.6058  -17.9980   30.1909 N   0  0  0  0  0  0  0  0  0  0  0  0
   -2.6188  -17.0899   30.4118 C   0  0  0  0  0  0  0  0  0  0  0  0
   -3.7422  -17.1757   31.4669 C   0  0  0  0  0  0  0  0  0  0  0  0
   -3.9658  -18.1246   32.4834 C   0  0  0  0  0  0  0  0  0  0  0  0
   -5.0597  -17.6670   33.1875 C   0  0  0  0  0  0  0  0  0  0  0  0
   -5.5260  -16.5090   32.6542 O   0  0  0  0  0  0  0  0  0  0  0  0
   -4.7105  -16.2090   31.6120 C   0  0  0  0  0  0  0  0  0  0  0  0
   -2.4536  -16.0171   29.6690 N   0  0  0  0  0  0  0  0  0  0  0  0
   -1.1927  -16.1379   29.1467 C   0  0  0  0  0  0  0  0  0  0  0  0
   -0.4028  -15.1878   28.4653 C   0  0  0  0  0  0  0  0  0  0  0  0
    6.9878   -9.0524   23.9487 H   0  0  0  0  0  0  0  0  0  0  0  0
    5.8484   -9.8992   22.9530 H   0  0  0  0  0  0  0  0  0  0  0  0
    7.5212  -10.5120   23.1151 H   0  0  0  0  0  0  0  0  0  0  0  0
    4.4113  -11.1459   24.0923 H   0  0  0  0  0  0  0  0  0  0  0  0
    2.8806  -11.9456   26.0865 H   0  0  0  0  0  0  0  0  0  0  0  0
    3.8783   -9.7272   27.4094 H   0  0  0  0  0  0  0  0  0  0  0  0
    5.2258   -9.8361   26.4150 H   0  0  0  0  0  0  0  0  0  0  0  0
    5.0622  -10.5160   28.0675 H   0  0  0  0  0  0  0  0  0  0  0  0
    1.1237  -13.5378   26.9260 H   0  0  0  0  0  0  0  0  0  0  0  0
    2.4288  -16.9587   27.9244 H   0  0  0  0  0  0  0  0  0  0  0  0
    1.1047  -18.6616   29.1877 H   0  0  0  0  0  0  0  0  0  0  0  0
   -1.5116  -18.8936   30.6446 H   0  0  0  0  0  0  0  0  0  0  0  0
   -3.3979  -19.0149   32.7080 H   0  0  0  0  0  0  0  0  0  0  0  0
   -5.6024  -18.0276   34.0509 H   0  0  0  0  0  0  0  0  0  0  0  0
   -4.9315  -15.2905   31.0862 H   0  0  0  0  0  0  0  0  0  0  0  0
   -0.8636  -14.2132   28.3697 H   0  0  0  0  0  0  0  0  0  0  0  0
  1  2  1  0
  2  3  2  0
  2  4  1  0
  4  5  1  0
  5  6  1  0
  5  7  1  0
  7  8  2  0
  7  9  1  0
  9 10  1  0
 10 11  2  0
 11 12  1  0
 12 13  2  0
 13 14  1  0
 14 15  1  0
 15 16  1  0
 16 17  1  0
 17 18  2  0
 18 19  1  0
 19 20  1  0
 15 21  2  0
 21 22  1  0
 22 23  2  0
 23 10  1  0
 22 13  1  0
 20 16  2  0
  1 24  1  0
  1 25  1  0
  1 26  1  0
  4 27  1  0
  5 28  1  0
  6 29  1  0
  6 30  1  0
  6 31  1  0
  9 32  1  0
 11 33  1  0
 12 34  1  0
 14 35  1  0
 17 36  1  0
 18 37  1  0
 20 38  1  0
 23 39  1  0
M  END
>  <Energy>  (189) 
300.15226263963791

>  <compound_id>  (189) 
77345

>  <target_id>  (189) 
1

>  <reference_id>  (189) 
52

>  <inspiration_ids>  (189) 
[52, 76]

>  <energy_score>  (189) 
266.060304288672

>  <distance_score>  (189) 
15.97658741501394

>  <path>  (189) 
/opt/xchem-fragalysis-2/maxwin/BulkDock/SCRATCH/511025/C77345-P52/C77345-P52.minimised.mol

>  <scratch_subdir>  (189) 
/opt/xchem-fragalysis-2/maxwin/BulkDock/SCRATCH/511025/C77345-P52

>  <fragmenstein_runtime>  (189) 
24.63957405090332

>  <fragmenstein_outcome>  (189) 
too moved

>  <fragmenstein_mode>  (189) 
expansion

>  <fragmenstein_error>  (189) 


$$$$
C77345-P76
     RDKit          3D

 39 41  0  0  0  0  0  0  0  0999 V2000
   -2.3485  -20.5990   22.8668 C   0  0  0  0  0  0  0  0  0  0  0  0
   -3.2473  -19.4308   22.5240 C   0  0  0  0  0  0  0  0  0  0  0  0
   -4.2063  -19.5281   21.8698 O   0  0  0  0  0  0  0  0  0  0  0  0
   -2.6081  -18.1871   23.1877 N   0  0  0  0  0  0  0  0  0  0  0  0
   -3.0758  -16.8089   23.2618 C   0  0  0  0  0  0  0  0  0  0  0  0
   -1.9388  -15.6710   22.5359 C   0  0  0  0  0  0  0  0  0  0  0  0
   -3.9363  -16.5093   24.7070 C   0  0  0  0  0  0  0  0  0  0  0  0
   -4.4287  -15.4385   24.8402 O   0  0  0  0  0  0  0  0  0  0  0  0
   -4.0164  -17.8186   25.6482 N   0  0  0  0  0  0  0  0  0  0  0  0
   -4.7994  -18.0683   26.8745 C   0  0  0  0  0  0  0  0  0  0  0  0
   -6.0315  -17.4639   27.1645 C   0  0  0  0  0  0  0  0  0  0  0  0
   -6.7164  -17.5534   28.4100 C   0  0  0  0  0  0  0  0  0  0  0  0
   -6.0290  -18.1478   29.4498 C   0  0  0  0  0  0  0  0  0  0  0  0
   -6.1706  -18.1648   30.8130 N   0  0  0  0  0  0  0  0  0  0  0  0
   -5.1872  -18.9620   31.3369 C   0  0  0  0  0  0  0  0  0  0  0  0
   -4.9386  -19.2376   32.8427 C   0  0  0  0  0  0  0  0  0  0  0  0
   -3.8977  -20.0174   33.3993 C   0  0  0  0  0  0  0  0  0  0  0  0
   -4.0708  -19.9628   34.7624 C   0  0  0  0  0  0  0  0  0  0  0  0
   -5.1518  -19.2000   35.0761 O   0  0  0  0  0  0  0  0  0  0  0  0
   -5.6805  -18.7665   33.8988 C   0  0  0  0  0  0  0  0  0  0  0  0
   -4.4151  -19.4384   30.3787 N   0  0  0  0  0  0  0  0  0  0  0  0
   -4.8830  -18.8916   29.2066 C   0  0  0  0  0  0  0  0  0  0  0  0
   -4.3373  -18.9508   27.8850 C   0  0  0  0  0  0  0  0  0  0  0  0
   -1.3346  -20.4114   22.5026 H   0  0  0  0  0  0  0  0  0  0  0  0
   -2.7304  -21.5045   22.3863 H   0  0  0  0  0  0  0  0  0  0  0  0
   -2.3379  -20.7545   23.9491 H   0  0  0  0  0  0  0  0  0  0  0  0
   -1.8214  -18.4736   23.7549 H   0  0  0  0  0  0  0  0  0  0  0  0
   -3.8995  -16.7865   22.5314 H   0  0  0  0  0  0  0  0  0  0  0  0
   -1.5707  -15.1687   23.4095 H   0  0  0  0  0  0  0  0  0  0  0  0
   -2.5567  -15.0894   21.8503 H   0  0  0  0  0  0  0  0  0  0  0  0
   -1.2293  -16.2621   21.9566 H   0  0  0  0  0  0  0  0  0  0  0  0
   -3.4103  -18.5389   25.2807 H   0  0  0  0  0  0  0  0  0  0  0  0
   -6.4762  -16.8262   26.3976 H   0  0  0  0  0  0  0  0  0  0  0  0
   -7.6226  -16.9893   28.5321 H   0  0  0  0  0  0  0  0  0  0  0  0
   -6.9179  -17.7717   31.3589 H   0  0  0  0  0  0  0  0  0  0  0  0
   -3.1230  -20.5468   32.8639 H   0  0  0  0  0  0  0  0  0  0  0  0
   -3.5408  -20.3882   35.6026 H   0  0  0  0  0  0  0  0  0  0  0  0
   -6.5678  -18.1565   33.9846 H   0  0  0  0  0  0  0  0  0  0  0  0
   -3.4148  -19.5065   27.7532 H   0  0  0  0  0  0  0  0  0  0  0  0
  1  2  1  0
  2  3  2  0
  2  4  1  0
  4  5  1  0
  5  6  1  0
  5  7  1  0
  7  8  2  0
  7  9  1  0
  9 10  1  0
 10 11  2  0
 11 12  1  0
 12 13  2  0
 13 14  1  0
 14 15  1  0
 15 16  1  0
 16 17  1  0
 17 18  2  0
 18 19  1  0
 19 20  1  0
 15 21  2  0
 21 22  1  0
 22 23  2  0
 23 10  1  0
 22 13  1  0
 20 16  2  0
  1 24  1  0
  1 25  1  0
  1 26  1  0
  4 27  1  0
  5 28  1  0
  6 29  1  0
  6 30  1  0
  6 31  1  0
  9 32  1  0
 11 33  1  0
 12 34  1  0
 14 35  1  0
 17 36  1  0
 18 37  1  0
 20 38  1  0
 23 39  1  0
M  END
>  <Energy>  (190) 
80.694219446903034

>  <compound_id>  (190) 
77345

>  <target_id>  (190) 
1

>  <reference_id>  (190) 
76

>  <inspiration_ids>  (190) 
[52, 76]

>  <energy_score>  (190) 
34.516514952696525

>  <distance_score>  (190) 
20.237278718870932

>  <path>  (190) 
/opt/xchem-fragalysis-2/maxwin/BulkDock/SCRATCH/511025/C77345-P76/C77345-P76.minimised.mol

>  <scratch_subdir>  (190) 
/opt/xchem-fragalysis-2/maxwin/BulkDock/SCRATCH/511025/C77345-P76

>  <fragmenstein_runtime>  (190) 
12.379570484161377

>  <fragmenstein_outcome>  (190) 
too moved

>  <fragmenstein_mode>  (190) 
expansion

>  <fragmenstein_error>  (190) 


$$$$
C77347-P52
     RDKit          3D

 45 48  0  0  0  0  0  0  0  0999 V2000
   -9.5105  -24.0667   30.3578 C   0  0  0  0  0  0  0  0  0  0  0  0
   -8.7667  -23.4520   31.3987 O   0  0  0  0  0  0  0  0  0  0  0  0
   -7.9641  -22.4866   30.9324 C   0  0  0  0  0  0  0  0  0  0  0  0
   -6.8781  -21.0214   32.1159 C   0  0  0  0  0  0  0  0  0  0  0  0
   -6.4695  -19.1564   31.2732 C   0  0  0  0  0  0  0  0  0  0  0  0
   -6.6409  -18.2378   29.3560 C   0  0  0  0  0  0  0  0  0  0  0  0
   -6.0775  -16.8973   28.4831 N   0  0  0  0  0  0  0  0  0  0  0  0
   -5.1682  -17.1980   27.3079 C   0  0  0  0  0  0  0  0  0  0  0  0
   -3.1984  -15.8449   26.6721 S   0  0  0  0  0  0  0  0  0  0  0  0
   -2.9001  -14.7138   24.4861 C   0  0  0  0  0  0  0  0  0  0  0  0
   -2.5332  -13.2692   25.2594 C   0  0  0  0  0  0  0  0  0  0  0  0
   -1.6478  -14.1193   22.9777 C   0  0  0  0  0  0  0  0  0  0  0  0
   -0.9360  -13.1310   23.2358 O   0  0  0  0  0  0  0  0  0  0  0  0
   -0.9667  -14.7161   21.1052 C   0  0  0  0  0  0  0  0  0  0  0  0
   -0.4402  -15.9737   20.5069 C   0  0  0  0  0  0  0  0  0  0  0  0
   -0.4204  -16.4622   19.1074 C   0  0  0  0  0  0  0  0  0  0  0  0
   -1.0090  -15.8178   18.0623 C   0  0  0  0  0  0  0  0  0  0  0  0
   -2.0530  -15.0064   18.3873 C   0  0  0  0  0  0  0  0  0  0  0  0
   -2.1768  -14.5884   19.7834 C   0  0  0  0  0  0  0  0  0  0  0  0
   -2.5245  -14.3229   17.1122 C   0  0  0  0  0  0  0  0  0  0  0  0
   -1.2893  -14.4585   16.1915 C   0  0  0  0  0  0  0  0  0  0  0  0
   -0.6414  -15.7863   16.6142 C   0  0  0  0  0  0  0  0  0  0  0  0
   -5.9148  -18.8667   27.0332 N   0  0  0  0  0  0  0  0  0  0  0  0
   -6.9359  -19.8204   28.1704 C   0  0  0  0  0  0  0  0  0  0  0  0
   -7.8225  -21.5199   28.9849 C   0  0  0  0  0  0  0  0  0  0  0  0
  -10.1215  -24.8582   30.8025 H   0  0  0  0  0  0  0  0  0  0  0  0
  -10.1868  -23.3522   29.8761 H   0  0  0  0  0  0  0  0  0  0  0  0
   -8.8522  -24.5292   29.6169 H   0  0  0  0  0  0  0  0  0  0  0  0
   -7.2706  -20.9925   33.1534 H   0  0  0  0  0  0  0  0  0  0  0  0
   -6.0222  -18.4354   31.9969 H   0  0  0  0  0  0  0  0  0  0  0  0
   -3.8560  -14.5711   24.0127 H   0  0  0  0  0  0  0  0  0  0  0  0
   -2.1440  -13.4381   26.2759 H   0  0  0  0  0  0  0  0  0  0  0  0
   -3.2639  -12.5319   25.4623 H   0  0  0  0  0  0  0  0  0  0  0  0
   -2.0246  -12.5691   24.6486 H   0  0  0  0  0  0  0  0  0  0  0  0
   -0.1941  -16.8152   21.1375 H   0  0  0  0  0  0  0  0  0  0  0  0
    0.0480  -17.4154   18.8734 H   0  0  0  0  0  0  0  0  0  0  0  0
   -2.7069  -13.6353   19.7910 H   0  0  0  0  0  0  0  0  0  0  0  0
   -3.3659  -14.8877   16.6950 H   0  0  0  0  0  0  0  0  0  0  0  0
   -2.8227  -13.2799   17.2450 H   0  0  0  0  0  0  0  0  0  0  0  0
   -1.5632  -14.4506   15.1319 H   0  0  0  0  0  0  0  0  0  0  0  0
   -0.5941  -13.6260   16.3524 H   0  0  0  0  0  0  0  0  0  0  0  0
   -1.0889  -16.6367   16.0900 H   0  0  0  0  0  0  0  0  0  0  0  0
    0.4399  -15.7698   16.4531 H   0  0  0  0  0  0  0  0  0  0  0  0
   -5.3017  -19.4093   26.4625 H   0  0  0  0  0  0  0  0  0  0  0  0
   -8.4117  -22.0081   28.2002 H   0  0  0  0  0  0  0  0  0  0  0  0
  1  2  1  0
  2  3  1  0
  3  4  2  0
  4  5  1  0
  5  6  2  0
  6  7  1  0
  7  8  2  0
  8  9  1  0
  9 10  1  0
 10 11  1  0
 10 12  1  0
 12 13  2  0
 12 14  1  0
 14 15  2  0
 15 16  1  0
 16 17  2  0
 17 18  1  0
 18 19  2  0
 18 20  1  0
 20 21  1  0
 21 22  1  0
  8 23  1  0
 23 24  1  0
 24 25  2  0
 25  3  1  0
 24  6  1  0
 19 14  1  0
 22 17  1  0
  1 26  1  0
  1 27  1  0
  1 28  1  0
  4 29  1  0
  5 30  1  0
 10 31  1  0
 11 32  1  0
 11 33  1  0
 11 34  1  0
 15 35  1  0
 16 36  1  0
 19 37  1  0
 20 38  1  0
 20 39  1  0
 21 40  1  0
 21 41  1  0
 22 42  1  0
 22 43  1  0
 23 44  1  0
 25 45  1  0
M  END
>  <Energy>  (191) 
2093.1959218478105

>  <compound_id>  (191) 
77347

>  <target_id>  (191) 
1

>  <reference_id>  (191) 
52

>  <inspiration_ids>  (191) 
[52, 76]

>  <energy_score>  (191) 
1999.4202270113783

>  <distance_score>  (191) 
16.946431317094184

>  <path>  (191) 
/opt/xchem-fragalysis-2/maxwin/BulkDock/SCRATCH/511025/C77347-P52/C77347-P52.minimised.mol

>  <scratch_subdir>  (191) 
/opt/xchem-fragalysis-2/maxwin/BulkDock/SCRATCH/511025/C77347-P52

>  <fragmenstein_runtime>  (191) 
31.07219672203064

>  <fragmenstein_outcome>  (191) 
too moved

>  <fragmenstein_mode>  (191) 
expansion

>  <fragmenstein_error>  (191) 


$$$$
C77347-P76
     RDKit          3D

 45 48  0  0  0  0  0  0  0  0999 V2000
    9.3426  -17.6957   26.4719 C   0  0  0  0  0  0  0  0  0  0  0  0
    8.6162  -16.8781   25.5612 O   0  0  0  0  0  0  0  0  0  0  0  0
    8.4552  -15.5636   25.9086 C   0  0  0  0  0  0  0  0  0  0  0  0
    8.8295  -14.9866   27.1231 C   0  0  0  0  0  0  0  0  0  0  0  0
    8.6815  -13.5974   27.3481 C   0  0  0  0  0  0  0  0  0  0  0  0
    8.2143  -12.7725   26.3135 C   0  0  0  0  0  0  0  0  0  0  0  0
    8.1216  -11.3869   26.2255 N   0  0  0  0  0  0  0  0  0  0  0  0
    7.9964  -11.1371   24.9383 C   0  0  0  0  0  0  0  0  0  0  0  0
    8.0351   -9.6097   24.0562 S   0  0  0  0  0  0  0  0  0  0  0  0
    9.8297   -9.0102   23.9303 C   0  0  0  0  0  0  0  0  0  0  0  0
   10.2274   -8.4769   25.3015 C   0  0  0  0  0  0  0  0  0  0  0  0
   10.0090   -7.8749   22.8067 C   0  0  0  0  0  0  0  0  0  0  0  0
    9.0648   -7.4795   22.1188 O   0  0  0  0  0  0  0  0  0  0  0  0
   11.3845   -7.2575   22.5072 C   0  0  0  0  0  0  0  0  0  0  0  0
   12.5811   -7.9073   22.8577 C   0  0  0  0  0  0  0  0  0  0  0  0
   13.8434   -7.3832   22.4999 C   0  0  0  0  0  0  0  0  0  0  0  0
   13.9174   -6.2124   21.7640 C   0  0  0  0  0  0  0  0  0  0  0  0
   12.7469   -5.5648   21.3843 C   0  0  0  0  0  0  0  0  0  0  0  0
   11.4866   -6.0534   21.7663 C   0  0  0  0  0  0  0  0  0  0  0  0
   13.0885   -4.4490   20.4454 C   0  0  0  0  0  0  0  0  0  0  0  0
   14.5664   -4.1959   20.7436 C   0  0  0  0  0  0  0  0  0  0  0  0
   15.1308   -5.5536   21.1693 C   0  0  0  0  0  0  0  0  0  0  0  0
    7.7628  -12.2969   24.2510 N   0  0  0  0  0  0  0  0  0  0  0  0
    7.9074  -13.3718   25.1013 C   0  0  0  0  0  0  0  0  0  0  0  0
    7.9350  -14.7606   24.8863 C   0  0  0  0  0  0  0  0  0  0  0  0
    8.8059  -17.8100   27.4182 H   0  0  0  0  0  0  0  0  0  0  0  0
    9.4382  -18.6892   26.0234 H   0  0  0  0  0  0  0  0  0  0  0  0
   10.3527  -17.3055   26.6356 H   0  0  0  0  0  0  0  0  0  0  0  0
    9.2309  -15.5832   27.9366 H   0  0  0  0  0  0  0  0  0  0  0  0
    8.9897  -13.1583   28.2914 H   0  0  0  0  0  0  0  0  0  0  0  0
   10.4334   -9.8739   23.6355 H   0  0  0  0  0  0  0  0  0  0  0  0
    9.6197   -7.6092   25.5835 H   0  0  0  0  0  0  0  0  0  0  0  0
   11.2703   -8.1482   25.3193 H   0  0  0  0  0  0  0  0  0  0  0  0
   10.1237   -9.2411   26.0789 H   0  0  0  0  0  0  0  0  0  0  0  0
   12.5683   -8.8524   23.3944 H   0  0  0  0  0  0  0  0  0  0  0  0
   14.7499   -7.9199   22.7696 H   0  0  0  0  0  0  0  0  0  0  0  0
   10.5884   -5.5360   21.4347 H   0  0  0  0  0  0  0  0  0  0  0  0
   12.9588   -4.7690   19.4079 H   0  0  0  0  0  0  0  0  0  0  0  0
   12.4985   -3.5745   20.6556 H   0  0  0  0  0  0  0  0  0  0  0  0
   14.6534   -3.4882   21.5795 H   0  0  0  0  0  0  0  0  0  0  0  0
   15.1017   -3.7631   19.8931 H   0  0  0  0  0  0  0  0  0  0  0  0
   15.9406   -5.4434   21.8957 H   0  0  0  0  0  0  0  0  0  0  0  0
   15.4784   -6.1261   20.3030 H   0  0  0  0  0  0  0  0  0  0  0  0
    7.6766  -12.3357   23.2485 H   0  0  0  0  0  0  0  0  0  0  0  0
    7.7251  -15.1916   23.9148 H   0  0  0  0  0  0  0  0  0  0  0  0
  1  2  1  0
  2  3  1  0
  3  4  2  0
  4  5  1  0
  5  6  2  0
  6  7  1  0
  7  8  2  0
  8  9  1  0
  9 10  1  0
 10 11  1  0
 10 12  1  0
 12 13  2  0
 12 14  1  0
 14 15  2  0
 15 16  1  0
 16 17  2  0
 17 18  1  0
 18 19  2  0
 18 20  1  0
 20 21  1  0
 21 22  1  0
  8 23  1  0
 23 24  1  0
 24 25  2  0
 25  3  1  0
 24  6  1  0
 19 14  1  0
 22 17  1  0
  1 26  1  0
  1 27  1  0
  1 28  1  0
  4 29  1  0
  5 30  1  0
 10 31  1  0
 11 32  1  0
 11 33  1  0
 11 34  1  0
 15 35  1  0
 16 36  1  0
 19 37  1  0
 20 38  1  0
 20 39  1  0
 21 40  1  0
 21 41  1  0
 22 42  1  0
 22 43  1  0
 23 44  1  0
 25 45  1  0
M  END
>  <Energy>  (192) 
73.975310104785066

>  <compound_id>  (192) 
77347

>  <target_id>  (192) 
1

>  <reference_id>  (192) 
76

>  <inspiration_ids>  (192) 
[52, 76]

>  <energy_score>  (192) 
-19.800384731669283

>  <distance_score>  (192) 
16.352705894722828

>  <path>  (192) 
/opt/xchem-fragalysis-2/maxwin/BulkDock/SCRATCH/511025/C77347-P76/C77347-P76.minimised.mol

>  <scratch_subdir>  (192) 
/opt/xchem-fragalysis-2/maxwin/BulkDock/SCRATCH/511025/C77347-P76

>  <fragmenstein_runtime>  (192) 
15.248334884643555

>  <fragmenstein_outcome>  (192) 
too moved

>  <fragmenstein_mode>  (192) 
expansion

>  <fragmenstein_error>  (192) 


$$$$
C77348-P52
     RDKit          3D

 38 40  0  0  0  0  0  0  0  0999 V2000
   -8.3693  -21.9024   28.0603 C   0  0  0  0  0  0  0  0  0  0  0  0
   -7.1658  -21.8292   27.1532 O   0  0  0  0  0  0  0  0  0  0  0  0
   -6.2599  -20.8776   26.8272 C   0  0  0  0  0  0  0  0  0  0  0  0
   -6.4978  -19.6172   27.2168 C   0  0  0  0  0  0  0  0  0  0  0  0
   -5.4069  -18.8238   27.4444 C   0  0  0  0  0  0  0  0  0  0  0  0
   -4.1161  -19.1417   26.9531 C   0  0  0  0  0  0  0  0  0  0  0  0
   -2.8825  -18.4697   27.0260 N   0  0  0  0  0  0  0  0  0  0  0  0
   -2.5072  -18.1868   25.7707 C   0  0  0  0  0  0  0  0  0  0  0  0
   -2.3066  -16.0474   25.1416 S   0  0  0  0  0  0  0  0  0  0  0  0
   -1.4772  -14.1079   23.6750 C   0  0  0  0  0  0  0  0  0  0  0  0
   -1.3687  -13.8186   21.9826 C   0  0  0  0  0  0  0  0  0  0  0  0
    0.2491  -12.8798   23.4948 C   0  0  0  0  0  0  0  0  0  0  0  0
    1.0269  -13.3854   22.4876 O   0  0  0  0  0  0  0  0  0  0  0  0
    1.8670  -11.8186   22.9102 C   0  0  0  0  0  0  0  0  0  0  0  0
    1.9512  -10.7901   21.9113 C   0  0  0  0  0  0  0  0  0  0  0  0
    3.0036  -10.4845   20.8987 C   0  0  0  0  0  0  0  0  0  0  0  0
    4.2451  -11.0742   20.9514 C   0  0  0  0  0  0  0  0  0  0  0  0
    4.4152  -11.9625   21.9854 C   0  0  0  0  0  0  0  0  0  0  0  0
    3.3089  -12.3158   22.8641 C   0  0  0  0  0  0  0  0  0  0  0  0
   -3.1268  -19.4192   25.0909 N   0  0  0  0  0  0  0  0  0  0  0  0
   -4.1026  -20.0433   25.9309 C   0  0  0  0  0  0  0  0  0  0  0  0
   -5.1115  -21.0774   25.9656 C   0  0  0  0  0  0  0  0  0  0  0  0
   -8.2990  -22.4876   28.9661 H   0  0  0  0  0  0  0  0  0  0  0  0
   -9.0877  -22.5889   27.5595 H   0  0  0  0  0  0  0  0  0  0  0  0
   -8.9480  -21.0097   28.2448 H   0  0  0  0  0  0  0  0  0  0  0  0
   -7.4852  -19.2503   27.4212 H   0  0  0  0  0  0  0  0  0  0  0  0
   -5.6130  -17.8607   27.8919 H   0  0  0  0  0  0  0  0  0  0  0  0
   -2.1413  -13.4395   24.2574 H   0  0  0  0  0  0  0  0  0  0  0  0
   -1.0153  -12.8831   22.3257 H   0  0  0  0  0  0  0  0  0  0  0  0
   -0.8320  -14.6276   21.3587 H   0  0  0  0  0  0  0  0  0  0  0  0
   -0.6078  -13.3623   21.3776 H   0  0  0  0  0  0  0  0  0  0  0  0
    0.9700  -10.4739   21.5802 H   0  0  0  0  0  0  0  0  0  0  0  0
    2.7454   -9.7926   20.1004 H   0  0  0  0  0  0  0  0  0  0  0  0
    5.0235  -10.8563   20.2340 H   0  0  0  0  0  0  0  0  0  0  0  0
    5.3697  -12.4627   22.1288 H   0  0  0  0  0  0  0  0  0  0  0  0
    3.6729  -13.0192   23.6018 H   0  0  0  0  0  0  0  0  0  0  0  0
   -2.9325  -19.6743   24.1392 H   0  0  0  0  0  0  0  0  0  0  0  0
   -5.0513  -21.9482   25.3226 H   0  0  0  0  0  0  0  0  0  0  0  0
  1  2  1  0
  2  3  1  0
  3  4  2  0
  4  5  1  0
  5  6  2  0
  6  7  1  0
  7  8  2  0
  8  9  1  0
  9 10  1  0
 10 11  1  0
 10 12  1  0
 12 13  2  0
 12 14  1  0
 14 15  2  0
 15 16  1  0
 16 17  2  0
 17 18  1  0
 18 19  2  0
  8 20  1  0
 20 21  1  0
 21 22  2  0
 22  3  1  0
 21  6  1  0
 19 14  1  0
  1 23  1  0
  1 24  1  0
  1 25  1  0
  4 26  1  0
  5 27  1  0
 10 28  1  0
 11 29  1  0
 11 30  1  0
 11 31  1  0
 15 32  1  0
 16 33  1  0
 17 34  1  0
 18 35  1  0
 19 36  1  0
 20 37  1  0
 22 38  1  0
M  END
>  <Energy>  (193) 
979.2496027493969

>  <compound_id>  (193) 
77348

>  <target_id>  (193) 
1

>  <reference_id>  (193) 
52

>  <inspiration_ids>  (193) 
[52, 76]

>  <energy_score>  (193) 
901.1497643320884

>  <distance_score>  (193) 
12.704633403674666

>  <path>  (193) 
/opt/xchem-fragalysis-2/maxwin/BulkDock/SCRATCH/511025/C77348-P52/C77348-P52.minimised.mol

>  <scratch_subdir>  (193) 
/opt/xchem-fragalysis-2/maxwin/BulkDock/SCRATCH/511025/C77348-P52

>  <fragmenstein_runtime>  (193) 
15.810813188552856

>  <fragmenstein_outcome>  (193) 
too moved

>  <fragmenstein_mode>  (193) 
expansion

>  <fragmenstein_error>  (193) 


$$$$
C77348-P76
     RDKit          3D

 38 40  0  0  0  0  0  0  0  0999 V2000
  -10.0524  -21.1424   28.3382 C   0  0  0  0  0  0  0  0  0  0  0  0
   -9.0872  -19.4701   28.3129 O   0  0  0  0  0  0  0  0  0  0  0  0
   -7.7707  -18.6890   28.3819 C   0  0  0  0  0  0  0  0  0  0  0  0
   -7.9009  -17.3948   28.8967 C   0  0  0  0  0  0  0  0  0  0  0  0
   -6.9105  -16.8230   29.7389 C   0  0  0  0  0  0  0  0  0  0  0  0
   -5.5924  -17.3116   29.6365 C   0  0  0  0  0  0  0  0  0  0  0  0
   -4.4136  -16.5598   29.8337 N   0  0  0  0  0  0  0  0  0  0  0  0
   -3.7815  -16.6555   28.6583 C   0  0  0  0  0  0  0  0  0  0  0  0
   -2.2573  -15.4769   27.7178 S   0  0  0  0  0  0  0  0  0  0  0  0
   -1.2144  -13.8989   28.5707 C   0  0  0  0  0  0  0  0  0  0  0  0
   -1.3296  -12.7067   27.6140 C   0  0  0  0  0  0  0  0  0  0  0  0
    0.3561  -14.1913   28.8630 C   0  0  0  0  0  0  0  0  0  0  0  0
    0.6936  -15.3125   29.2754 O   0  0  0  0  0  0  0  0  0  0  0  0
    1.5240  -13.1805   28.9308 C   0  0  0  0  0  0  0  0  0  0  0  0
    1.4049  -11.8339   29.2747 C   0  0  0  0  0  0  0  0  0  0  0  0
    2.5500  -11.0968   29.6716 C   0  0  0  0  0  0  0  0  0  0  0  0
    3.8315  -11.6566   29.7070 C   0  0  0  0  0  0  0  0  0  0  0  0
    3.9831  -12.9734   29.3035 C   0  0  0  0  0  0  0  0  0  0  0  0
    2.8436  -13.7173   28.9295 C   0  0  0  0  0  0  0  0  0  0  0  0
   -4.0931  -18.0142   28.2559 N   0  0  0  0  0  0  0  0  0  0  0  0
   -5.3936  -18.3198   28.6891 C   0  0  0  0  0  0  0  0  0  0  0  0
   -6.4630  -19.0271   28.0309 C   0  0  0  0  0  0  0  0  0  0  0  0
  -10.7595  -21.3024   27.5030 H   0  0  0  0  0  0  0  0  0  0  0  0
   -9.4154  -22.0493   28.3132 H   0  0  0  0  0  0  0  0  0  0  0  0
  -10.5987  -21.0646   29.2957 H   0  0  0  0  0  0  0  0  0  0  0  0
   -8.8495  -16.8837   28.7696 H   0  0  0  0  0  0  0  0  0  0  0  0
   -7.0868  -15.8720   30.2292 H   0  0  0  0  0  0  0  0  0  0  0  0
   -1.6933  -13.6646   29.5058 H   0  0  0  0  0  0  0  0  0  0  0  0
   -0.4150  -12.5625   27.0357 H   0  0  0  0  0  0  0  0  0  0  0  0
   -1.4893  -11.7881   28.1881 H   0  0  0  0  0  0  0  0  0  0  0  0
   -2.1550  -12.7805   26.9015 H   0  0  0  0  0  0  0  0  0  0  0  0
    0.4325  -11.3616   29.3633 H   0  0  0  0  0  0  0  0  0  0  0  0
    2.4303  -10.0860   30.0324 H   0  0  0  0  0  0  0  0  0  0  0  0
    4.6852  -11.0782   30.0466 H   0  0  0  0  0  0  0  0  0  0  0  0
    4.9586  -13.4526   29.3143 H   0  0  0  0  0  0  0  0  0  0  0  0
    2.9833  -14.7748   28.7002 H   0  0  0  0  0  0  0  0  0  0  0  0
   -3.6586  -18.4265   27.4467 H   0  0  0  0  0  0  0  0  0  0  0  0
   -6.2358  -19.7462   27.2500 H   0  0  0  0  0  0  0  0  0  0  0  0
  1  2  1  0
  2  3  1  0
  3  4  2  0
  4  5  1  0
  5  6  2  0
  6  7  1  0
  7  8  2  0
  8  9  1  0
  9 10  1  0
 10 11  1  0
 10 12  1  0
 12 13  2  0
 12 14  1  0
 14 15  2  0
 15 16  1  0
 16 17  2  0
 17 18  1  0
 18 19  2  0
  8 20  1  0
 20 21  1  0
 21 22  2  0
 22  3  1  0
 21  6  1  0
 19 14  1  0
  1 23  1  0
  1 24  1  0
  1 25  1  0
  4 26  1  0
  5 27  1  0
 10 28  1  0
 11 29  1  0
 11 30  1  0
 11 31  1  0
 15 32  1  0
 16 33  1  0
 17 34  1  0
 18 35  1  0
 19 36  1  0
 20 37  1  0
 22 38  1  0
M  END
>  <Energy>  (194) 
320.12287011516986

>  <compound_id>  (194) 
77348

>  <target_id>  (194) 
1

>  <reference_id>  (194) 
76

>  <inspiration_ids>  (194) 
[52, 76]

>  <energy_score>  (194) 
242.0230316978524

>  <distance_score>  (194) 
14.750343019246936

>  <path>  (194) 
/opt/xchem-fragalysis-2/maxwin/BulkDock/SCRATCH/511025/C77348-P76/C77348-P76.minimised.mol

>  <scratch_subdir>  (194) 
/opt/xchem-fragalysis-2/maxwin/BulkDock/SCRATCH/511025/C77348-P76

>  <fragmenstein_runtime>  (194) 
9.532984256744385

>  <fragmenstein_outcome>  (194) 
too moved

>  <fragmenstein_mode>  (194) 
expansion

>  <fragmenstein_error>  (194) 


$$$$
C77349-P52
     RDKit          3D

 37 39  0  0  0  0  0  0  0  0999 V2000
    0.3034  -12.8843   23.1973 C   0  0  0  0  0  0  0  0  0  0  0  0
   -1.1699  -13.0722   22.7116 C   0  0  0  0  0  0  0  0  0  0  0  0
   -3.4052  -14.1405   23.2641 S   0  0  0  0  0  0  0  0  0  0  0  0
   -5.5273  -13.2558   22.8129 C   0  0  0  0  0  0  0  0  0  0  0  0
   -6.8205  -14.0957   23.2572 N   0  0  0  0  0  0  0  0  0  0  0  0
   -7.6692  -13.8980   24.6038 C   0  0  0  0  0  0  0  0  0  0  0  0
   -8.7795  -14.5969   25.2863 C   0  0  0  0  0  0  0  0  0  0  0  0
   -9.1880  -14.2695   26.5632 C   0  0  0  0  0  0  0  0  0  0  0  0
   -8.4937  -13.2386   27.1410 C   0  0  0  0  0  0  0  0  0  0  0  0
   -7.5718  -12.3770   26.3920 C   0  0  0  0  0  0  0  0  0  0  0  0
   -7.2181  -12.5981   25.0425 C   0  0  0  0  0  0  0  0  0  0  0  0
   -6.3137  -11.8839   23.6100 N   0  0  0  0  0  0  0  0  0  0  0  0
   -7.0757  -11.0533   22.7053 C   0  0  0  0  0  0  0  0  0  0  0  0
   -0.8047  -11.3918   21.5395 C   0  0  0  0  0  0  0  0  0  0  0  0
    0.2901  -10.7205   21.6261 O   0  0  0  0  0  0  0  0  0  0  0  0
   -1.7744  -10.2197   20.3272 C   0  0  0  0  0  0  0  0  0  0  0  0
   -1.4811   -8.8201   20.2745 C   0  0  0  0  0  0  0  0  0  0  0  0
   -2.0273   -7.9182   19.3524 C   0  0  0  0  0  0  0  0  0  0  0  0
   -2.8515   -8.4100   18.3661 C   0  0  0  0  0  0  0  0  0  0  0  0
   -3.1271   -9.7807   18.3444 C   0  0  0  0  0  0  0  0  0  0  0  0
   -2.6304  -10.6633   19.3234 C   0  0  0  0  0  0  0  0  0  0  0  0
    1.0868  -11.9918   23.0745 H   0  0  0  0  0  0  0  0  0  0  0  0
    0.3648  -12.5042   24.2351 H   0  0  0  0  0  0  0  0  0  0  0  0
    1.0514  -13.4197   22.5929 H   0  0  0  0  0  0  0  0  0  0  0  0
   -1.3794  -12.8071   23.7825 H   0  0  0  0  0  0  0  0  0  0  0  0
   -9.3259  -15.3790   24.7858 H   0  0  0  0  0  0  0  0  0  0  0  0
   -9.9405  -14.8370   27.0944 H   0  0  0  0  0  0  0  0  0  0  0  0
   -8.6258  -13.0908   28.2057 H   0  0  0  0  0  0  0  0  0  0  0  0
   -7.0481  -11.6143   26.9170 H   0  0  0  0  0  0  0  0  0  0  0  0
   -7.8249  -11.4491   22.0097 H   0  0  0  0  0  0  0  0  0  0  0  0
   -7.5031  -10.2405   23.2859 H   0  0  0  0  0  0  0  0  0  0  0  0
   -6.5190  -10.9938   21.8476 H   0  0  0  0  0  0  0  0  0  0  0  0
   -0.7831   -8.3602   20.9343 H   0  0  0  0  0  0  0  0  0  0  0  0
   -1.7414   -6.8716   19.3743 H   0  0  0  0  0  0  0  0  0  0  0  0
   -3.2324   -7.7578   17.5872 H   0  0  0  0  0  0  0  0  0  0  0  0
   -3.6863  -10.1982   17.5126 H   0  0  0  0  0  0  0  0  0  0  0  0
   -2.8455  -11.7068   19.2130 H   0  0  0  0  0  0  0  0  0  0  0  0
  1  2  1  0
  2  3  1  0
  3  4  1  0
  4  5  2  0
  5  6  1  0
  6  7  2  0
  7  8  1  0
  8  9  2  0
  9 10  1  0
 10 11  2  0
 11 12  1  0
 12 13  1  0
  2 14  1  0
 14 15  2  0
 14 16  1  0
 16 17  2  0
 17 18  1  0
 18 19  2  0
 19 20  1  0
 20 21  2  0
 12  4  1  0
 21 16  1  0
 11  6  1  0
  1 22  1  0
  1 23  1  0
  1 24  1  0
  2 25  1  0
  7 26  1  0
  8 27  1  0
  9 28  1  0
 10 29  1  0
 13 30  1  0
 13 31  1  0
 13 32  1  0
 17 33  1  0
 18 34  1  0
 19 35  1  0
 20 36  1  0
 21 37  1  0
M  END
>  <Energy>  (195) 
771.97319103674681

>  <compound_id>  (195) 
77349

>  <target_id>  (195) 
1

>  <reference_id>  (195) 
52

>  <inspiration_ids>  (195) 
[52, 76]

>  <energy_score>  (195) 
684.7644898974497

>  <distance_score>  (195) 
15.143721949681813

>  <path>  (195) 
/opt/xchem-fragalysis-2/maxwin/BulkDock/SCRATCH/511025/C77349-P52/C77349-P52.minimised.mol

>  <scratch_subdir>  (195) 
/opt/xchem-fragalysis-2/maxwin/BulkDock/SCRATCH/511025/C77349-P52

>  <fragmenstein_runtime>  (195) 
14.575329065322876

>  <fragmenstein_outcome>  (195) 
too moved

>  <fragmenstein_mode>  (195) 
expansion

>  <fragmenstein_error>  (195) 


$$$$
C77349-P76
     RDKit          3D

 37 39  0  0  0  0  0  0  0  0999 V2000
   -6.5218  -20.5568   20.8040 C   0  0  0  0  0  0  0  0  0  0  0  0
   -6.0848  -19.1581   21.2443 C   0  0  0  0  0  0  0  0  0  0  0  0
   -6.1452  -18.9570   23.4675 S   0  0  0  0  0  0  0  0  0  0  0  0
   -4.8032  -20.3324   24.8762 C   0  0  0  0  0  0  0  0  0  0  0  0
   -4.7554  -20.3382   26.2132 N   0  0  0  0  0  0  0  0  0  0  0  0
   -3.9593  -21.3846   26.6039 C   0  0  0  0  0  0  0  0  0  0  0  0
   -3.3691  -21.6823   27.8449 C   0  0  0  0  0  0  0  0  0  0  0  0
   -2.6909  -22.8889   28.0282 C   0  0  0  0  0  0  0  0  0  0  0  0
   -2.5592  -23.7739   26.9668 C   0  0  0  0  0  0  0  0  0  0  0  0
   -3.0890  -23.4743   25.7038 C   0  0  0  0  0  0  0  0  0  0  0  0
   -3.7693  -22.2582   25.5496 C   0  0  0  0  0  0  0  0  0  0  0  0
   -4.3982  -21.6553   24.4686 N   0  0  0  0  0  0  0  0  0  0  0  0
   -4.7444  -22.4039   23.2833 C   0  0  0  0  0  0  0  0  0  0  0  0
   -5.2541  -18.3100   19.8541 C   0  0  0  0  0  0  0  0  0  0  0  0
   -6.1194  -18.1052   18.9612 O   0  0  0  0  0  0  0  0  0  0  0  0
   -3.7019  -17.9016   19.1712 C   0  0  0  0  0  0  0  0  0  0  0  0
   -2.4131  -17.6326   19.6954 C   0  0  0  0  0  0  0  0  0  0  0  0
   -1.2894  -17.1037   18.9766 C   0  0  0  0  0  0  0  0  0  0  0  0
   -1.3792  -16.8214   17.6319 C   0  0  0  0  0  0  0  0  0  0  0  0
   -2.5932  -17.0962   17.0248 C   0  0  0  0  0  0  0  0  0  0  0  0
   -3.7073  -17.6116   17.7751 C   0  0  0  0  0  0  0  0  0  0  0  0
   -6.9938  -20.5165   19.8164 H   0  0  0  0  0  0  0  0  0  0  0  0
   -5.6619  -21.2251   20.7073 H   0  0  0  0  0  0  0  0  0  0  0  0
   -7.2468  -20.9892   21.4992 H   0  0  0  0  0  0  0  0  0  0  0  0
   -7.0113  -18.5608   21.1903 H   0  0  0  0  0  0  0  0  0  0  0  0
   -3.3968  -20.9694   28.6532 H   0  0  0  0  0  0  0  0  0  0  0  0
   -2.2429  -23.1171   28.9913 H   0  0  0  0  0  0  0  0  0  0  0  0
   -2.0192  -24.7075   27.1095 H   0  0  0  0  0  0  0  0  0  0  0  0
   -2.9638  -24.1650   24.8763 H   0  0  0  0  0  0  0  0  0  0  0  0
   -3.9055  -22.3457   22.5855 H   0  0  0  0  0  0  0  0  0  0  0  0
   -5.6513  -22.0144   22.8329 H   0  0  0  0  0  0  0  0  0  0  0  0
   -4.9276  -23.4485   23.5513 H   0  0  0  0  0  0  0  0  0  0  0  0
   -2.1543  -17.7827   20.7182 H   0  0  0  0  0  0  0  0  0  0  0  0
   -0.3587  -16.9261   19.5123 H   0  0  0  0  0  0  0  0  0  0  0  0
   -0.5417  -16.4206   17.0733 H   0  0  0  0  0  0  0  0  0  0  0  0
   -2.7267  -16.9026   15.9620 H   0  0  0  0  0  0  0  0  0  0  0  0
   -4.6337  -17.7606   17.2160 H   0  0  0  0  0  0  0  0  0  0  0  0
  1  2  1  0
  2  3  1  0
  3  4  1  0
  4  5  2  0
  5  6  1  0
  6  7  2  0
  7  8  1  0
  8  9  2  0
  9 10  1  0
 10 11  2  0
 11 12  1  0
 12 13  1  0
  2 14  1  0
 14 15  2  0
 14 16  1  0
 16 17  2  0
 17 18  1  0
 18 19  2  0
 19 20  1  0
 20 21  2  0
 12  4  1  0
 21 16  1  0
 11  6  1  0
  1 22  1  0
  1 23  1  0
  1 24  1  0
  2 25  1  0
  7 26  1  0
  8 27  1  0
  9 28  1  0
 10 29  1  0
 13 30  1  0
 13 31  1  0
 13 32  1  0
 17 33  1  0
 18 34  1  0
 19 35  1  0
 20 36  1  0
 21 37  1  0
M  END
>  <Energy>  (196) 
323.07444077837948

>  <compound_id>  (196) 
77349

>  <target_id>  (196) 
1

>  <reference_id>  (196) 
76

>  <inspiration_ids>  (196) 
[52, 76]

>  <energy_score>  (196) 
235.86573963909063

>  <distance_score>  (196) 
15.683892669539118

>  <path>  (196) 
/opt/xchem-fragalysis-2/maxwin/BulkDock/SCRATCH/511025/C77349-P76/C77349-P76.minimised.mol

>  <scratch_subdir>  (196) 
/opt/xchem-fragalysis-2/maxwin/BulkDock/SCRATCH/511025/C77349-P76

>  <fragmenstein_runtime>  (196) 
12.271167278289795

>  <fragmenstein_outcome>  (196) 
too moved

>  <fragmenstein_mode>  (196) 
expansion

>  <fragmenstein_error>  (196) 


$$$$
C50598-P52
     RDKit          3D

 44 47  0  0  0  0  0  0  0  0999 V2000
   -4.8867  -14.9803   28.6769 C   0  0  0  0  0  0  0  0  0  0  0  0
   -4.8150  -15.8508   27.3940 C   0  0  0  0  0  0  0  0  0  0  0  0
   -7.4044  -16.3314   27.3459 S   0  0  0  0  0  0  0  0  0  0  0  0
   -8.6754  -18.3183   28.0936 C   0  0  0  0  0  0  0  0  0  0  0  0
   -9.8548  -18.8945   29.2668 N   0  0  0  0  0  0  0  0  0  0  0  0
  -10.2021  -20.2186   29.7025 C   0  0  0  0  0  0  0  0  0  0  0  0
  -10.8445  -20.7713   30.8723 C   0  0  0  0  0  0  0  0  0  0  0  0
  -10.8382  -22.1906   31.0379 C   0  0  0  0  0  0  0  0  0  0  0  0
  -10.2469  -23.0378   30.0579 C   0  0  0  0  0  0  0  0  0  0  0  0
   -9.6610  -22.4936   28.8619 C   0  0  0  0  0  0  0  0  0  0  0  0
   -9.5881  -21.0369   28.7529 C   0  0  0  0  0  0  0  0  0  0  0  0
   -9.4870  -20.0345   27.6814 N   0  0  0  0  0  0  0  0  0  0  0  0
  -11.1519  -20.7379   27.2291 C   0  0  0  0  0  0  0  0  0  0  0  0
  -12.0493  -21.0993   28.2705 C   0  0  0  0  0  0  0  0  0  0  0  0
  -12.5785  -22.4168   28.5418 C   0  0  0  0  0  0  0  0  0  0  0  0
  -12.4049  -23.4561   27.6565 C   0  0  0  0  0  0  0  0  0  0  0  0
  -11.9175  -23.0801   26.4414 C   0  0  0  0  0  0  0  0  0  0  0  0
  -11.4319  -21.7541   26.2669 C   0  0  0  0  0  0  0  0  0  0  0  0
   -3.1225  -15.3105   26.0629 C   0  0  0  0  0  0  0  0  0  0  0  0
   -2.6040  -16.1912   25.4215 O   0  0  0  0  0  0  0  0  0  0  0  0
   -2.4694  -13.5154   25.5538 N   0  0  0  0  0  0  0  0  0  0  0  0
   -1.3533  -12.9339   24.1750 C   0  0  0  0  0  0  0  0  0  0  0  0
    0.4294  -12.3165   24.3326 C   0  0  0  0  0  0  0  0  0  0  0  0
    0.2216  -11.8647   25.5579 N   0  0  0  0  0  0  0  0  0  0  0  0
   -0.9260  -13.0061   26.6287 C   0  0  0  0  0  0  0  0  0  0  0  0
    0.6438  -13.1548   26.4714 O   0  0  0  0  0  0  0  0  0  0  0  0
   -4.7620  -15.5935   29.5746 H   0  0  0  0  0  0  0  0  0  0  0  0
   -4.1454  -14.1842   28.6926 H   0  0  0  0  0  0  0  0  0  0  0  0
   -5.8570  -14.4821   28.7627 H   0  0  0  0  0  0  0  0  0  0  0  0
   -4.5607  -16.8739   27.6510 H   0  0  0  0  0  0  0  0  0  0  0  0
  -11.2428  -20.1236   31.6435 H   0  0  0  0  0  0  0  0  0  0  0  0
  -11.2883  -22.6255   31.9282 H   0  0  0  0  0  0  0  0  0  0  0  0
  -10.2926  -24.1173   30.1812 H   0  0  0  0  0  0  0  0  0  0  0  0
   -9.3992  -23.1269   28.0277 H   0  0  0  0  0  0  0  0  0  0  0  0
  -12.2839  -20.3304   29.0043 H   0  0  0  0  0  0  0  0  0  0  0  0
  -13.1094  -22.5862   29.4771 H   0  0  0  0  0  0  0  0  0  0  0  0
  -12.8017  -24.4458   27.8409 H   0  0  0  0  0  0  0  0  0  0  0  0
  -12.0219  -23.7369   25.5885 H   0  0  0  0  0  0  0  0  0  0  0  0
  -11.7097  -21.4022   25.2533 H   0  0  0  0  0  0  0  0  0  0  0  0
   -1.5859  -13.9565   23.8172 H   0  0  0  0  0  0  0  0  0  0  0  0
   -1.2333  -13.1204   23.0933 H   0  0  0  0  0  0  0  0  0  0  0  0
    0.3833  -12.8702   23.3552 H   0  0  0  0  0  0  0  0  0  0  0  0
    1.1512  -11.5364   23.9396 H   0  0  0  0  0  0  0  0  0  0  0  0
    0.1470  -10.8516   25.5340 H   0  0  0  0  0  0  0  0  0  0  0  0
  1  2  1  0
  2  3  1  0
  3  4  1  0
  4  5  2  0
  5  6  1  0
  6  7  2  0
  7  8  1  0
  8  9  2  0
  9 10  1  0
 10 11  2  0
 11 12  1  0
 12 13  1  0
 13 14  2  0
 14 15  1  0
 15 16  2  0
 16 17  1  0
 17 18  2  0
  2 19  1  0
 19 20  2  0
 19 21  1  0
 21 22  1  0
 22 23  1  0
 23 24  1  0
 24 25  1  0
 25 26  2  0
 12  4  1  0
 18 13  1  0
 25 21  1  0
 11  6  1  0
  1 27  1  0
  1 28  1  0
  1 29  1  0
  2 30  1  0
  7 31  1  0
  8 32  1  0
  9 33  1  0
 10 34  1  0
 14 35  1  0
 15 36  1  0
 16 37  1  0
 17 38  1  0
 18 39  1  0
 22 40  1  0
 22 41  1  0
 23 42  1  0
 23 43  1  0
 24 44  1  0
M  END
>  <Energy>  (197) 
1793.3905248184842

>  <compound_id>  (197) 
50598

>  <target_id>  (197) 
1

>  <reference_id>  (197) 
52

>  <inspiration_ids>  (197) 
[52, 76]

>  <energy_score>  (197) 
1741.3406465691032

>  <distance_score>  (197) 
11.380475485701481

>  <path>  (197) 
/opt/xchem-fragalysis-2/maxwin/BulkDock/SCRATCH/511025/C50598-P52/C50598-P52.minimised.mol

>  <scratch_subdir>  (197) 
/opt/xchem-fragalysis-2/maxwin/BulkDock/SCRATCH/511025/C50598-P52

>  <fragmenstein_runtime>  (197) 
44.86728262901306

>  <fragmenstein_outcome>  (197) 
too moved

>  <fragmenstein_mode>  (197) 
expansion

>  <fragmenstein_error>  (197) 


$$$$
C50598-P76
     RDKit          3D

 44 47  0  0  0  0  0  0  0  0999 V2000
   -2.0396  -12.9160   29.4686 C   0  0  0  0  0  0  0  0  0  0  0  0
   -1.2983  -14.1362   29.9908 C   0  0  0  0  0  0  0  0  0  0  0  0
   -2.0751  -15.6492   29.2334 S   0  0  0  0  0  0  0  0  0  0  0  0
   -3.0290  -16.5265   30.4135 C   0  0  0  0  0  0  0  0  0  0  0  0
   -3.7149  -16.0014   31.4059 N   0  0  0  0  0  0  0  0  0  0  0  0
   -4.2618  -17.0714   32.0855 C   0  0  0  0  0  0  0  0  0  0  0  0
   -5.1225  -17.0755   33.2014 C   0  0  0  0  0  0  0  0  0  0  0  0
   -5.5400  -18.2926   33.7553 C   0  0  0  0  0  0  0  0  0  0  0  0
   -5.0979  -19.4963   33.2198 C   0  0  0  0  0  0  0  0  0  0  0  0
   -4.2525  -19.5153   32.1053 C   0  0  0  0  0  0  0  0  0  0  0  0
   -3.8497  -18.2863   31.5389 C   0  0  0  0  0  0  0  0  0  0  0  0
   -3.1481  -17.9225   30.3780 N   0  0  0  0  0  0  0  0  0  0  0  0
   -2.8421  -18.8239   29.2987 C   0  0  0  0  0  0  0  0  0  0  0  0
   -2.3885  -20.1266   29.5694 C   0  0  0  0  0  0  0  0  0  0  0  0
   -2.4804  -21.1283   28.5931 C   0  0  0  0  0  0  0  0  0  0  0  0
   -3.0268  -20.8419   27.3440 C   0  0  0  0  0  0  0  0  0  0  0  0
   -3.4268  -19.5393   27.0474 C   0  0  0  0  0  0  0  0  0  0  0  0
   -3.3097  -18.5205   28.0046 C   0  0  0  0  0  0  0  0  0  0  0  0
    0.2878  -14.1445   29.7423 C   0  0  0  0  0  0  0  0  0  0  0  0
    0.7700  -15.1989   29.4011 O   0  0  0  0  0  0  0  0  0  0  0  0
    0.9108  -12.9077   30.0600 N   0  0  0  0  0  0  0  0  0  0  0  0
    2.3276  -12.5502   30.1783 C   0  0  0  0  0  0  0  0  0  0  0  0
    2.5455  -11.0841   30.1684 C   0  0  0  0  0  0  0  0  0  0  0  0
    1.8512  -10.8669   28.9886 N   0  0  0  0  0  0  0  0  0  0  0  0
    1.0452  -12.0076   28.7881 C   0  0  0  0  0  0  0  0  0  0  0  0
    0.3869  -12.0428   27.7561 O   0  0  0  0  0  0  0  0  0  0  0  0
   -3.1027  -12.9568   29.7322 H   0  0  0  0  0  0  0  0  0  0  0  0
   -1.6400  -11.9947   29.9042 H   0  0  0  0  0  0  0  0  0  0  0  0
   -1.9662  -12.8283   28.3795 H   0  0  0  0  0  0  0  0  0  0  0  0
   -1.4259  -14.2039   31.0775 H   0  0  0  0  0  0  0  0  0  0  0  0
   -5.4639  -16.1335   33.6173 H   0  0  0  0  0  0  0  0  0  0  0  0
   -6.2256  -18.2934   34.5985 H   0  0  0  0  0  0  0  0  0  0  0  0
   -5.4502  -20.4322   33.6470 H   0  0  0  0  0  0  0  0  0  0  0  0
   -3.9547  -20.4675   31.6876 H   0  0  0  0  0  0  0  0  0  0  0  0
   -1.9853  -20.3830   30.5470 H   0  0  0  0  0  0  0  0  0  0  0  0
   -2.1400  -22.1370   28.8165 H   0  0  0  0  0  0  0  0  0  0  0  0
   -3.1246  -21.6244   26.5935 H   0  0  0  0  0  0  0  0  0  0  0  0
   -3.8864  -19.3393   26.0846 H   0  0  0  0  0  0  0  0  0  0  0  0
   -3.7399  -17.5499   27.7739 H   0  0  0  0  0  0  0  0  0  0  0  0
    2.9332  -13.1093   29.4409 H   0  0  0  0  0  0  0  0  0  0  0  0
    2.6523  -12.9559   31.1458 H   0  0  0  0  0  0  0  0  0  0  0  0
    3.5908  -10.7831   30.0793 H   0  0  0  0  0  0  0  0  0  0  0  0
    2.0520  -10.5683   30.9971 H   0  0  0  0  0  0  0  0  0  0  0  0
    1.3807   -9.9816   28.8020 H   0  0  0  0  0  0  0  0  0  0  0  0
  1  2  1  0
  2  3  1  0
  3  4  1  0
  4  5  2  0
  5  6  1  0
  6  7  2  0
  7  8  1  0
  8  9  2  0
  9 10  1  0
 10 11  2  0
 11 12  1  0
 12 13  1  0
 13 14  2  0
 14 15  1  0
 15 16  2  0
 16 17  1  0
 17 18  2  0
  2 19  1  0
 19 20  2  0
 19 21  1  0
 21 22  1  0
 22 23  1  0
 23 24  1  0
 24 25  1  0
 25 26  2  0
 12  4  1  0
 18 13  1  0
 25 21  1  0
 11  6  1  0
  1 27  1  0
  1 28  1  0
  1 29  1  0
  2 30  1  0
  7 31  1  0
  8 32  1  0
  9 33  1  0
 10 34  1  0
 14 35  1  0
 15 36  1  0
 16 37  1  0
 17 38  1  0
 18 39  1  0
 22 40  1  0
 22 41  1  0
 23 42  1  0
 23 43  1  0
 24 44  1  0
M  END
>  <Energy>  (198) 
89.546848517453711

>  <compound_id>  (198) 
50598

>  <target_id>  (198) 
1

>  <reference_id>  (198) 
76

>  <inspiration_ids>  (198) 
[52, 76]

>  <energy_score>  (198) 
37.49697026805893

>  <distance_score>  (198) 
13.583588117337728

>  <path>  (198) 
/opt/xchem-fragalysis-2/maxwin/BulkDock/SCRATCH/511025/C50598-P76/C50598-P76.minimised.mol

>  <scratch_subdir>  (198) 
/opt/xchem-fragalysis-2/maxwin/BulkDock/SCRATCH/511025/C50598-P76

>  <fragmenstein_runtime>  (198) 
24.42762017250061

>  <fragmenstein_outcome>  (198) 
too moved

>  <fragmenstein_mode>  (198) 
expansion

>  <fragmenstein_error>  (198) 


$$$$
C77351-P52
     RDKit          3D

 39 41  0  0  0  0  0  0  0  0999 V2000
    0.3659   -7.2277   20.3370 C   0  0  0  0  0  0  0  0  0  0  0  0
    1.3453   -8.5917   20.1332 N   0  0  0  0  0  0  0  0  0  0  0  0
   -0.3118   -9.4644   20.5450 C   0  0  0  0  0  0  0  0  0  0  0  0
   -2.0121   -9.4772   19.9700 C   0  0  0  0  0  0  0  0  0  0  0  0
   -3.0296   -8.7911   20.4985 N   0  0  0  0  0  0  0  0  0  0  0  0
   -4.2157   -9.3239   19.9807 C   0  0  0  0  0  0  0  0  0  0  0  0
   -5.5671   -9.0252   20.2728 C   0  0  0  0  0  0  0  0  0  0  0  0
   -6.5828   -9.8757   19.7849 C   0  0  0  0  0  0  0  0  0  0  0  0
   -6.2691  -10.9716   18.9717 C   0  0  0  0  0  0  0  0  0  0  0  0
   -4.9385  -11.2434   18.6096 C   0  0  0  0  0  0  0  0  0  0  0  0
   -3.9410  -10.4097   19.1553 C   0  0  0  0  0  0  0  0  0  0  0  0
   -2.5688  -10.4725   19.1442 N   0  0  0  0  0  0  0  0  0  0  0  0
    3.0645   -9.5802   20.9393 C   0  0  0  0  0  0  0  0  0  0  0  0
    3.7183  -11.2941   19.9463 C   0  0  0  0  0  0  0  0  0  0  0  0
    3.1153  -12.3608   19.8162 O   0  0  0  0  0  0  0  0  0  0  0  0
    4.9233  -11.3570   19.2911 O   0  0  0  0  0  0  0  0  0  0  0  0
    4.9990   -9.2360   20.7650 C   0  0  0  0  0  0  0  0  0  0  0  0
    5.9874   -9.3262   21.9432 C   0  0  0  0  0  0  0  0  0  0  0  0
    7.4065   -9.2023   21.8691 C   0  0  0  0  0  0  0  0  0  0  0  0
    8.0466   -9.0379   20.6536 C   0  0  0  0  0  0  0  0  0  0  0  0
    7.2853   -9.0553   19.5004 C   0  0  0  0  0  0  0  0  0  0  0  0
    5.8693   -9.1811   19.5459 C   0  0  0  0  0  0  0  0  0  0  0  0
    0.1144   -6.9042   21.3579 H   0  0  0  0  0  0  0  0  0  0  0  0
    0.2994   -6.3633   19.6470 H   0  0  0  0  0  0  0  0  0  0  0  0
   -0.5918   -7.5101   19.8760 H   0  0  0  0  0  0  0  0  0  0  0  0
   -0.0517  -10.2738   21.2199 H   0  0  0  0  0  0  0  0  0  0  0  0
   -0.7828   -8.7523   21.2270 H   0  0  0  0  0  0  0  0  0  0  0  0
   -5.7997   -8.1926   20.9234 H   0  0  0  0  0  0  0  0  0  0  0  0
   -7.6173   -9.6757   20.0493 H   0  0  0  0  0  0  0  0  0  0  0  0
   -7.0674  -11.6114   18.6041 H   0  0  0  0  0  0  0  0  0  0  0  0
   -4.6903  -12.0910   17.9808 H   0  0  0  0  0  0  0  0  0  0  0  0
   -2.0238  -11.0805   18.5484 H   0  0  0  0  0  0  0  0  0  0  0  0
    2.5823  -10.2312   21.7277 H   0  0  0  0  0  0  0  0  0  0  0  0
    4.9064  -12.2707   18.9380 H   0  0  0  0  0  0  0  0  0  0  0  0
    5.6489   -9.5751   22.9396 H   0  0  0  0  0  0  0  0  0  0  0  0
    7.9936   -9.2824   22.7810 H   0  0  0  0  0  0  0  0  0  0  0  0
    9.1283   -8.9697   20.6007 H   0  0  0  0  0  0  0  0  0  0  0  0
    7.7744   -9.0091   18.5294 H   0  0  0  0  0  0  0  0  0  0  0  0
    5.4710   -9.2723   18.5324 H   0  0  0  0  0  0  0  0  0  0  0  0
  1  2  1  0
  2  3  1  0
  3  4  1  0
  4  5  2  0
  5  6  1  0
  6  7  2  0
  7  8  1  0
  8  9  2  0
  9 10  1  0
 10 11  2  0
 11 12  1  0
  2 13  1  0
 13 14  1  0
 14 15  2  0
 14 16  1  0
 13 17  1  0
 17 18  2  0
 18 19  1  0
 19 20  2  0
 20 21  1  0
 21 22  2  0
 12  4  1  0
 22 17  1  0
 11  6  1  0
  1 23  1  0
  1 24  1  0
  1 25  1  0
  3 26  1  0
  3 27  1  0
  7 28  1  0
  8 29  1  0
  9 30  1  0
 10 31  1  0
 12 32  1  0
 13 33  1  0
 16 34  1  0
 18 35  1  0
 19 36  1  0
 20 37  1  0
 21 38  1  0
 22 39  1  0
M  END
>  <Energy>  (199) 
625.89700039743502

>  <compound_id>  (199) 
77351

>  <target_id>  (199) 
1

>  <reference_id>  (199) 
52

>  <inspiration_ids>  (199) 
[52, 76]

>  <energy_score>  (199) 
504.8129712185364

>  <distance_score>  (199) 
17.222143375641622

>  <path>  (199) 
/opt/xchem-fragalysis-2/maxwin/BulkDock/SCRATCH/511025/C77351-P52/C77351-P52.minimised.mol

>  <scratch_subdir>  (199) 
/opt/xchem-fragalysis-2/maxwin/BulkDock/SCRATCH/511025/C77351-P52

>  <fragmenstein_runtime>  (199) 
12.859951734542847

>  <fragmenstein_outcome>  (199) 
too moved

>  <fragmenstein_mode>  (199) 
expansion

>  <fragmenstein_error>  (199) 


$$$$
C77351-P76
     RDKit          3D

 39 41  0  0  0  0  0  0  0  0999 V2000
    7.3859   -5.5169   23.4848 C   0  0  0  0  0  0  0  0  0  0  0  0
    6.8341   -6.4488   22.4782 N   0  0  0  0  0  0  0  0  0  0  0  0
    5.0742   -6.9501   23.4115 C   0  0  0  0  0  0  0  0  0  0  0  0
    3.0789   -6.9548   24.1159 C   0  0  0  0  0  0  0  0  0  0  0  0
    1.8803   -7.9122   23.7726 N   0  0  0  0  0  0  0  0  0  0  0  0
    0.2780   -7.7272   24.4807 C   0  0  0  0  0  0  0  0  0  0  0  0
   -0.2510   -7.7801   26.0375 C   0  0  0  0  0  0  0  0  0  0  0  0
   -1.1272   -6.9908   26.7236 C   0  0  0  0  0  0  0  0  0  0  0  0
   -1.8235   -6.2446   25.8920 C   0  0  0  0  0  0  0  0  0  0  0  0
   -1.2785   -6.0247   24.6099 C   0  0  0  0  0  0  0  0  0  0  0  0
   -0.0153   -6.5237   24.0543 C   0  0  0  0  0  0  0  0  0  0  0  0
    1.4711   -5.9832   23.8235 N   0  0  0  0  0  0  0  0  0  0  0  0
    7.8769   -6.1825   20.7525 C   0  0  0  0  0  0  0  0  0  0  0  0
    7.7795   -7.5915   20.1623 C   0  0  0  0  0  0  0  0  0  0  0  0
    6.9123   -8.0238   19.4082 O   0  0  0  0  0  0  0  0  0  0  0  0
    8.8530   -8.3892   20.4664 O   0  0  0  0  0  0  0  0  0  0  0  0
    9.7016   -5.7053   19.9013 C   0  0  0  0  0  0  0  0  0  0  0  0
   10.5538   -5.4727   18.3358 C   0  0  0  0  0  0  0  0  0  0  0  0
   12.1479   -4.7958   17.9363 C   0  0  0  0  0  0  0  0  0  0  0  0
   13.1249   -4.5061   18.8599 C   0  0  0  0  0  0  0  0  0  0  0  0
   12.7632   -4.9242   20.1159 C   0  0  0  0  0  0  0  0  0  0  0  0
   11.3668   -5.5217   20.4303 C   0  0  0  0  0  0  0  0  0  0  0  0
    8.1545   -5.9933   24.0882 H   0  0  0  0  0  0  0  0  0  0  0  0
    6.6406   -5.2687   24.2245 H   0  0  0  0  0  0  0  0  0  0  0  0
    7.6475   -4.5417   23.0881 H   0  0  0  0  0  0  0  0  0  0  0  0
    5.5794   -7.3598   24.2896 H   0  0  0  0  0  0  0  0  0  0  0  0
    4.7605   -7.7373   22.7733 H   0  0  0  0  0  0  0  0  0  0  0  0
    0.3482   -8.2715   26.7971 H   0  0  0  0  0  0  0  0  0  0  0  0
   -1.2660   -7.0263   27.7931 H   0  0  0  0  0  0  0  0  0  0  0  0
   -2.6977   -5.7137   26.2358 H   0  0  0  0  0  0  0  0  0  0  0  0
   -1.9429   -5.4118   24.0256 H   0  0  0  0  0  0  0  0  0  0  0  0
    1.4687   -5.1916   23.1956 H   0  0  0  0  0  0  0  0  0  0  0  0
    7.3097   -5.4429   20.2121 H   0  0  0  0  0  0  0  0  0  0  0  0
    8.7350   -9.2261   19.9662 H   0  0  0  0  0  0  0  0  0  0  0  0
   10.4774   -5.0920   17.3065 H   0  0  0  0  0  0  0  0  0  0  0  0
   12.3161   -4.5945   16.8726 H   0  0  0  0  0  0  0  0  0  0  0  0
   14.0965   -4.1088   18.6094 H   0  0  0  0  0  0  0  0  0  0  0  0
   13.5191   -4.9986   20.8988 H   0  0  0  0  0  0  0  0  0  0  0  0
   11.8381   -6.4889   20.7992 H   0  0  0  0  0  0  0  0  0  0  0  0
  1  2  1  0
  2  3  1  0
  3  4  1  0
  4  5  2  0
  5  6  1  0
  6  7  2  0
  7  8  1  0
  8  9  2  0
  9 10  1  0
 10 11  2  0
 11 12  1  0
  2 13  1  0
 13 14  1  0
 14 15  2  0
 14 16  1  0
 13 17  1  0
 17 18  2  0
 18 19  1  0
 19 20  2  0
 20 21  1  0
 21 22  2  0
 12  4  1  0
 22 17  1  0
 11  6  1  0
  1 23  1  0
  1 24  1  0
  1 25  1  0
  3 26  1  0
  3 27  1  0
  7 28  1  0
  8 29  1  0
  9 30  1  0
 10 31  1  0
 12 32  1  0
 13 33  1  0
 16 34  1  0
 18 35  1  0
 19 36  1  0
 20 37  1  0
 21 38  1  0
 22 39  1  0
M  END
>  <Energy>  (200) 
1218.7493613645534

>  <compound_id>  (200) 
77351

>  <target_id>  (200) 
1

>  <reference_id>  (200) 
76

>  <inspiration_ids>  (200) 
[52, 76]

>  <energy_score>  (200) 
1097.6653321856475

>  <distance_score>  (200) 
16.215102990186047

>  <path>  (200) 
/opt/xchem-fragalysis-2/maxwin/BulkDock/SCRATCH/511025/C77351-P76/C77351-P76.minimised.mol

>  <scratch_subdir>  (200) 
/opt/xchem-fragalysis-2/maxwin/BulkDock/SCRATCH/511025/C77351-P76

>  <fragmenstein_runtime>  (200) 
6.514502763748169

>  <fragmenstein_outcome>  (200) 
too moved

>  <fragmenstein_mode>  (200) 
expansion

>  <fragmenstein_error>  (200) 


$$$$
C77352-P52
     RDKit          3D

 36 38  0  0  0  0  0  0  0  0999 V2000
    5.9435  -10.2264   29.6685 O   0  0  0  0  0  0  0  0  0  0  0  0
    4.9311  -10.1261   28.9931 C   0  0  0  0  0  0  0  0  0  0  0  0
    4.3753   -8.9126   28.7876 O   0  0  0  0  0  0  0  0  0  0  0  0
    4.1802  -11.2682   28.3320 C   0  0  0  0  0  0  0  0  0  0  0  0
    4.1567  -11.1192   26.8644 N   0  0  0  0  0  0  0  0  0  0  0  0
    3.0884  -12.2090   26.2478 C   0  0  0  0  0  0  0  0  0  0  0  0
    1.2669  -12.1122   25.7734 C   0  0  0  0  0  0  0  0  0  0  0  0
    0.7070  -13.1644   26.2212 N   0  0  0  0  0  0  0  0  0  0  0  0
   -1.2780  -13.2127   26.5881 C   0  0  0  0  0  0  0  0  0  0  0  0
   -2.1914  -13.9695   27.4081 C   0  0  0  0  0  0  0  0  0  0  0  0
   -1.7604  -14.6175   28.4984 F   0  0  0  0  0  0  0  0  0  0  0  0
   -3.5252  -14.0875   27.0069 C   0  0  0  0  0  0  0  0  0  0  0  0
   -4.0206  -13.4205   25.8627 C   0  0  0  0  0  0  0  0  0  0  0  0
   -3.2323  -12.6275   24.9520 C   0  0  0  0  0  0  0  0  0  0  0  0
   -1.7727  -12.7113   24.9272 C   0  0  0  0  0  0  0  0  0  0  0  0
   -0.0197  -11.7930   24.9544 N   0  0  0  0  0  0  0  0  0  0  0  0
    5.5782  -11.2810   26.2492 C   0  0  0  0  0  0  0  0  0  0  0  0
    6.2106  -10.1118   25.4755 C   0  0  0  0  0  0  0  0  0  0  0  0
    6.5187   -8.7880   25.7515 C   0  0  0  0  0  0  0  0  0  0  0  0
    7.2143   -8.2606   24.6236 C   0  0  0  0  0  0  0  0  0  0  0  0
    7.3025   -9.2898   23.7201 C   0  0  0  0  0  0  0  0  0  0  0  0
    6.7102  -10.4063   24.2238 O   0  0  0  0  0  0  0  0  0  0  0  0
    4.9496   -8.3120   29.3061 H   0  0  0  0  0  0  0  0  0  0  0  0
    4.6404  -12.2169   28.6320 H   0  0  0  0  0  0  0  0  0  0  0  0
    3.1660  -11.2498   28.7439 H   0  0  0  0  0  0  0  0  0  0  0  0
    3.6062  -12.6091   25.3610 H   0  0  0  0  0  0  0  0  0  0  0  0
    3.0796  -13.0035   27.0139 H   0  0  0  0  0  0  0  0  0  0  0  0
   -4.2095  -14.6469   27.6408 H   0  0  0  0  0  0  0  0  0  0  0  0
   -5.1063  -13.3943   25.7329 H   0  0  0  0  0  0  0  0  0  0  0  0
   -3.7732  -11.8859   24.3669 H   0  0  0  0  0  0  0  0  0  0  0  0
    0.3192  -11.9329   24.0374 H   0  0  0  0  0  0  0  0  0  0  0  0
    5.5881  -12.1613   25.5954 H   0  0  0  0  0  0  0  0  0  0  0  0
    6.2823  -11.5311   27.0538 H   0  0  0  0  0  0  0  0  0  0  0  0
    6.2863   -8.2741   26.6732 H   0  0  0  0  0  0  0  0  0  0  0  0
    7.6132   -7.2635   24.5055 H   0  0  0  0  0  0  0  0  0  0  0  0
    7.7327   -9.3991   22.7339 H   0  0  0  0  0  0  0  0  0  0  0  0
  1  2  2  0
  2  3  1  0
  2  4  1  0
  4  5  1  0
  5  6  1  0
  6  7  1  0
  7  8  2  0
  8  9  1  0
  9 10  2  0
 10 11  1  0
 10 12  1  0
 12 13  2  0
 13 14  1  0
 14 15  2  0
 15 16  1  0
  5 17  1  0
 17 18  1  0
 18 19  2  0
 19 20  1  0
 20 21  2  0
 21 22  1  0
 16  7  1  0
 22 18  1  0
 15  9  1  0
  3 23  1  0
  4 24  1  0
  4 25  1  0
  6 26  1  0
  6 27  1  0
 12 28  1  0
 13 29  1  0
 14 30  1  0
 16 31  1  0
 17 32  1  0
 17 33  1  0
 19 34  1  0
 20 35  1  0
 21 36  1  0
M  END
>  <Energy>  (201) 
530.25862513128106

>  <compound_id>  (201) 
77352

>  <target_id>  (201) 
1

>  <reference_id>  (201) 
52

>  <inspiration_ids>  (201) 
[52, 76]

>  <energy_score>  (201) 
427.22614457919735

>  <distance_score>  (201) 
17.01536305396675

>  <path>  (201) 
/opt/xchem-fragalysis-2/maxwin/BulkDock/SCRATCH/511025/C77352-P52/C77352-P52.minimised.mol

>  <scratch_subdir>  (201) 
/opt/xchem-fragalysis-2/maxwin/BulkDock/SCRATCH/511025/C77352-P52

>  <fragmenstein_runtime>  (201) 
13.627609491348267

>  <fragmenstein_outcome>  (201) 
too moved

>  <fragmenstein_mode>  (201) 
expansion

>  <fragmenstein_error>  (201) 


$$$$
C77352-P76
     RDKit          3D

 36 38  0  0  0  0  0  0  0  0999 V2000
    2.0378   -9.0582   17.5159 O   0  0  0  0  0  0  0  0  0  0  0  0
    1.5693   -8.0528   18.0061 C   0  0  0  0  0  0  0  0  0  0  0  0
    2.2757   -6.9003   17.8531 O   0  0  0  0  0  0  0  0  0  0  0  0
    0.3324   -7.8703   18.8766 C   0  0  0  0  0  0  0  0  0  0  0  0
   -1.0589   -8.2490   18.5006 N   0  0  0  0  0  0  0  0  0  0  0  0
   -1.8646   -9.2738   19.4768 C   0  0  0  0  0  0  0  0  0  0  0  0
   -3.0426   -9.3333   20.7528 C   0  0  0  0  0  0  0  0  0  0  0  0
   -2.8006   -9.6811   22.0644 N   0  0  0  0  0  0  0  0  0  0  0  0
   -4.0037  -10.2086   22.6661 C   0  0  0  0  0  0  0  0  0  0  0  0
   -4.4806  -11.3577   24.0794 C   0  0  0  0  0  0  0  0  0  0  0  0
   -3.6059  -12.0682   24.8682 F   0  0  0  0  0  0  0  0  0  0  0  0
   -5.9024  -12.2404   23.9897 C   0  0  0  0  0  0  0  0  0  0  0  0
   -6.7504  -12.0491   22.8050 C   0  0  0  0  0  0  0  0  0  0  0  0
   -6.3599  -11.0929   21.6467 C   0  0  0  0  0  0  0  0  0  0  0  0
   -5.0436  -10.2274   21.5208 C   0  0  0  0  0  0  0  0  0  0  0  0
   -4.4010   -9.5718   20.4738 N   0  0  0  0  0  0  0  0  0  0  0  0
   -1.4534   -7.8188   17.1513 C   0  0  0  0  0  0  0  0  0  0  0  0
   -0.4451   -6.9940   16.3173 C   0  0  0  0  0  0  0  0  0  0  0  0
   -0.1319   -5.6441   16.2298 C   0  0  0  0  0  0  0  0  0  0  0  0
    0.9585   -5.5137   15.3257 C   0  0  0  0  0  0  0  0  0  0  0  0
    1.2331   -6.7838   14.8822 C   0  0  0  0  0  0  0  0  0  0  0  0
    0.3896   -7.6818   15.4646 O   0  0  0  0  0  0  0  0  0  0  0  0
    2.9796   -7.1862   17.2361 H   0  0  0  0  0  0  0  0  0  0  0  0
    0.3119   -6.7857   18.8266 H   0  0  0  0  0  0  0  0  0  0  0  0
    0.5442   -8.1502   19.9067 H   0  0  0  0  0  0  0  0  0  0  0  0
   -2.0675  -10.1787   18.8916 H   0  0  0  0  0  0  0  0  0  0  0  0
   -1.1029   -9.4449   20.2418 H   0  0  0  0  0  0  0  0  0  0  0  0
   -6.0822  -12.9934   24.7475 H   0  0  0  0  0  0  0  0  0  0  0  0
   -7.6631  -12.6308   22.6960 H   0  0  0  0  0  0  0  0  0  0  0  0
   -7.0087  -11.0811   20.7695 H   0  0  0  0  0  0  0  0  0  0  0  0
   -4.7765   -9.5139   19.5425 H   0  0  0  0  0  0  0  0  0  0  0  0
   -2.3612   -7.2109   17.2456 H   0  0  0  0  0  0  0  0  0  0  0  0
   -1.7327   -8.6959   16.5577 H   0  0  0  0  0  0  0  0  0  0  0  0
   -0.6232   -4.8537   16.7781 H   0  0  0  0  0  0  0  0  0  0  0  0
    1.4665   -4.6060   15.0340 H   0  0  0  0  0  0  0  0  0  0  0  0
    1.9511   -7.2034   14.1916 H   0  0  0  0  0  0  0  0  0  0  0  0
  1  2  2  0
  2  3  1  0
  2  4  1  0
  4  5  1  0
  5  6  1  0
  6  7  1  0
  7  8  2  0
  8  9  1  0
  9 10  2  0
 10 11  1  0
 10 12  1  0
 12 13  2  0
 13 14  1  0
 14 15  2  0
 15 16  1  0
  5 17  1  0
 17 18  1  0
 18 19  2  0
 19 20  1  0
 20 21  2  0
 21 22  1  0
 16  7  1  0
 22 18  1  0
 15  9  1  0
  3 23  1  0
  4 24  1  0
  4 25  1  0
  6 26  1  0
  6 27  1  0
 12 28  1  0
 13 29  1  0
 14 30  1  0
 16 31  1  0
 17 32  1  0
 17 33  1  0
 19 34  1  0
 20 35  1  0
 21 36  1  0
M  END
>  <Energy>  (202) 
290.96067886613901

>  <compound_id>  (202) 
77352

>  <target_id>  (202) 
1

>  <reference_id>  (202) 
76

>  <inspiration_ids>  (202) 
[52, 76]

>  <energy_score>  (202) 
187.9281983140578

>  <distance_score>  (202) 
16.60487862214184

>  <path>  (202) 
/opt/xchem-fragalysis-2/maxwin/BulkDock/SCRATCH/511025/C77352-P76/C77352-P76.minimised.mol

>  <scratch_subdir>  (202) 
/opt/xchem-fragalysis-2/maxwin/BulkDock/SCRATCH/511025/C77352-P76

>  <fragmenstein_runtime>  (202) 
6.105322360992432

>  <fragmenstein_outcome>  (202) 
too moved

>  <fragmenstein_mode>  (202) 
expansion

>  <fragmenstein_error>  (202) 


$$$$
C77353-P52
     RDKit          3D

 39 41  0  0  0  0  0  0  0  0999 V2000
    7.7690  -15.4964   23.2858 O   0  0  0  0  0  0  0  0  0  0  0  0
    6.5656  -15.2877   23.3371 C   0  0  0  0  0  0  0  0  0  0  0  0
    6.0877  -14.0438   23.4692 O   0  0  0  0  0  0  0  0  0  0  0  0
    5.4952  -16.3530   23.2964 C   0  0  0  0  0  0  0  0  0  0  0  0
    4.5806  -16.2889   22.1247 N   0  0  0  0  0  0  0  0  0  0  0  0
    5.4215  -16.2563   20.8288 C   0  0  0  0  0  0  0  0  0  0  0  0
    5.9298  -14.9354   20.1947 C   0  0  0  0  0  0  0  0  0  0  0  0
    7.2936  -14.5626   20.2023 C   0  0  0  0  0  0  0  0  0  0  0  0
    7.7692  -13.4466   19.4832 C   0  0  0  0  0  0  0  0  0  0  0  0
    6.8942  -12.6891   18.7117 C   0  0  0  0  0  0  0  0  0  0  0  0
    5.5471  -13.0506   18.6670 C   0  0  0  0  0  0  0  0  0  0  0  0
    5.0737  -14.1511   19.4031 C   0  0  0  0  0  0  0  0  0  0  0  0
    3.7317  -17.6444   22.2223 C   0  0  0  0  0  0  0  0  0  0  0  0
    2.5408  -17.9588   23.3176 C   0  0  0  0  0  0  0  0  0  0  0  0
    1.2920  -18.3538   23.0258 N   0  0  0  0  0  0  0  0  0  0  0  0
    0.6462  -18.7263   24.2041 C   0  0  0  0  0  0  0  0  0  0  0  0
   -0.6704  -19.1874   24.4438 C   0  0  0  0  0  0  0  0  0  0  0  0
   -1.0570  -19.5208   25.7513 C   0  0  0  0  0  0  0  0  0  0  0  0
   -2.6563  -20.0850   26.0491 Cl  0  0  0  0  0  0  0  0  0  0  0  0
   -0.1599  -19.4030   26.8107 C   0  0  0  0  0  0  0  0  0  0  0  0
    1.1510  -18.9397   26.5894 C   0  0  0  0  0  0  0  0  0  0  0  0
    1.5220  -18.6057   25.2705 C   0  0  0  0  0  0  0  0  0  0  0  0
    2.6979  -18.1200   24.6951 N   0  0  0  0  0  0  0  0  0  0  0  0
    6.8718  -13.4655   23.3749 H   0  0  0  0  0  0  0  0  0  0  0  0
    6.0182  -17.3177   23.3364 H   0  0  0  0  0  0  0  0  0  0  0  0
    4.9081  -16.2704   24.2140 H   0  0  0  0  0  0  0  0  0  0  0  0
    4.7979  -16.7101   20.0459 H   0  0  0  0  0  0  0  0  0  0  0  0
    6.2683  -16.9485   20.9353 H   0  0  0  0  0  0  0  0  0  0  0  0
    8.0162  -15.1671   20.7483 H   0  0  0  0  0  0  0  0  0  0  0  0
    8.8262  -13.1958   19.5143 H   0  0  0  0  0  0  0  0  0  0  0  0
    7.2522  -11.8356   18.1441 H   0  0  0  0  0  0  0  0  0  0  0  0
    4.8496  -12.4717   18.0657 H   0  0  0  0  0  0  0  0  0  0  0  0
    4.0164  -14.4042   19.3353 H   0  0  0  0  0  0  0  0  0  0  0  0
    3.2238  -17.7580   21.2556 H   0  0  0  0  0  0  0  0  0  0  0  0
    4.4352  -18.4850   22.2967 H   0  0  0  0  0  0  0  0  0  0  0  0
   -1.3568  -19.2797   23.6094 H   0  0  0  0  0  0  0  0  0  0  0  0
   -0.4682  -19.6647   27.8202 H   0  0  0  0  0  0  0  0  0  0  0  0
    1.8506  -18.8407   27.4134 H   0  0  0  0  0  0  0  0  0  0  0  0
    3.5513  -17.9425   25.2001 H   0  0  0  0  0  0  0  0  0  0  0  0
  1  2  2  0
  2  3  1  0
  2  4  1  0
  4  5  1  0
  5  6  1  0
  6  7  1  0
  7  8  2  0
  8  9  1  0
  9 10  2  0
 10 11  1  0
 11 12  2  0
  5 13  1  0
 13 14  1  0
 14 15  2  0
 15 16  1  0
 16 17  2  0
 17 18  1  0
 18 19  1  0
 18 20  2  0
 20 21  1  0
 21 22  2  0
 22 23  1  0
 12  7  1  0
 23 14  1  0
 22 16  1  0
  3 24  1  0
  4 25  1  0
  4 26  1  0
  6 27  1  0
  6 28  1  0
  8 29  1  0
  9 30  1  0
 10 31  1  0
 11 32  1  0
 12 33  1  0
 13 34  1  0
 13 35  1  0
 17 36  1  0
 20 37  1  0
 21 38  1  0
 23 39  1  0
M  END
>  <Energy>  (203) 
80.834823092570474

>  <compound_id>  (203) 
77353

>  <target_id>  (203) 
1

>  <reference_id>  (203) 
52

>  <inspiration_ids>  (203) 
[52, 76]

>  <energy_score>  (203) 
-8.304675859164263

>  <distance_score>  (203) 
17.11495623237934

>  <path>  (203) 
/opt/xchem-fragalysis-2/maxwin/BulkDock/SCRATCH/511025/C77353-P52/C77353-P52.minimised.mol

>  <scratch_subdir>  (203) 
/opt/xchem-fragalysis-2/maxwin/BulkDock/SCRATCH/511025/C77353-P52

>  <fragmenstein_runtime>  (203) 
15.064249992370605

>  <fragmenstein_outcome>  (203) 
too moved

>  <fragmenstein_mode>  (203) 
expansion

>  <fragmenstein_error>  (203) 


$$$$
C77353-P76
     RDKit          3D

 39 41  0  0  0  0  0  0  0  0999 V2000
   -1.4328   -5.3871   17.2245 O   0  0  0  0  0  0  0  0  0  0  0  0
   -1.1739   -6.1290   16.2913 C   0  0  0  0  0  0  0  0  0  0  0  0
   -0.7196   -5.6117   15.1277 O   0  0  0  0  0  0  0  0  0  0  0  0
   -1.3679   -7.6342   16.2115 C   0  0  0  0  0  0  0  0  0  0  0  0
   -0.9534   -8.3578   17.4496 N   0  0  0  0  0  0  0  0  0  0  0  0
    0.5846   -8.4223   17.5046 C   0  0  0  0  0  0  0  0  0  0  0  0
    1.5411   -7.3152   17.0126 C   0  0  0  0  0  0  0  0  0  0  0  0
    2.3631   -7.5225   15.8858 C   0  0  0  0  0  0  0  0  0  0  0  0
    3.3386   -6.5900   15.5080 C   0  0  0  0  0  0  0  0  0  0  0  0
    3.5092   -5.4271   16.2505 C   0  0  0  0  0  0  0  0  0  0  0  0
    2.7159   -5.2052   17.3746 C   0  0  0  0  0  0  0  0  0  0  0  0
    1.7515   -6.1441   17.7553 C   0  0  0  0  0  0  0  0  0  0  0  0
   -1.6334   -9.7987   17.3550 C   0  0  0  0  0  0  0  0  0  0  0  0
   -2.5196  -10.6591   18.4503 C   0  0  0  0  0  0  0  0  0  0  0  0
   -2.4932  -12.0020   18.5337 N   0  0  0  0  0  0  0  0  0  0  0  0
   -3.6787  -12.4341   19.1163 C   0  0  0  0  0  0  0  0  0  0  0  0
   -4.1989  -13.7411   19.2954 C   0  0  0  0  0  0  0  0  0  0  0  0
   -5.4835  -13.9060   19.8421 C   0  0  0  0  0  0  0  0  0  0  0  0
   -6.1206  -15.4910   20.0517 Cl  0  0  0  0  0  0  0  0  0  0  0  0
   -6.2329  -12.7994   20.2346 C   0  0  0  0  0  0  0  0  0  0  0  0
   -5.7235  -11.4927   20.0656 C   0  0  0  0  0  0  0  0  0  0  0  0
   -4.4387  -11.3404   19.4968 C   0  0  0  0  0  0  0  0  0  0  0  0
   -3.6521  -10.2334   19.1503 N   0  0  0  0  0  0  0  0  0  0  0  0
   -0.5747   -4.6680   15.3491 H   0  0  0  0  0  0  0  0  0  0  0  0
   -2.4467   -7.7455   16.0421 H   0  0  0  0  0  0  0  0  0  0  0  0
   -0.8503   -8.0414   15.3344 H   0  0  0  0  0  0  0  0  0  0  0  0
    0.8402   -8.5043   18.5627 H   0  0  0  0  0  0  0  0  0  0  0  0
    0.9052   -9.3390   16.9979 H   0  0  0  0  0  0  0  0  0  0  0  0
    2.2562   -8.4326   15.2981 H   0  0  0  0  0  0  0  0  0  0  0  0
    3.9484   -6.7764   14.6284 H   0  0  0  0  0  0  0  0  0  0  0  0
    4.2395   -4.6881   15.9441 H   0  0  0  0  0  0  0  0  0  0  0  0
    2.8469   -4.3043   17.9699 H   0  0  0  0  0  0  0  0  0  0  0  0
    1.1609   -5.9579   18.6497 H   0  0  0  0  0  0  0  0  0  0  0  0
   -2.3749   -9.7366   16.5441 H   0  0  0  0  0  0  0  0  0  0  0  0
   -0.8903  -10.5000   16.9556 H   0  0  0  0  0  0  0  0  0  0  0  0
   -3.6093  -14.5920   18.9721 H   0  0  0  0  0  0  0  0  0  0  0  0
   -7.2179  -12.9276   20.6760 H   0  0  0  0  0  0  0  0  0  0  0  0
   -6.2996  -10.6275   20.3784 H   0  0  0  0  0  0  0  0  0  0  0  0
   -3.9272   -9.2673   19.2485 H   0  0  0  0  0  0  0  0  0  0  0  0
  1  2  2  0
  2  3  1  0
  2  4  1  0
  4  5  1  0
  5  6  1  0
  6  7  1  0
  7  8  2  0
  8  9  1  0
  9 10  2  0
 10 11  1  0
 11 12  2  0
  5 13  1  0
 13 14  1  0
 14 15  2  0
 15 16  1  0
 16 17  2  0
 17 18  1  0
 18 19  1  0
 18 20  2  0
 20 21  1  0
 21 22  2  0
 22 23  1  0
 12  7  1  0
 23 14  1  0
 22 16  1  0
  3 24  1  0
  4 25  1  0
  4 26  1  0
  6 27  1  0
  6 28  1  0
  8 29  1  0
  9 30  1  0
 10 31  1  0
 11 32  1  0
 12 33  1  0
 13 34  1  0
 13 35  1  0
 17 36  1  0
 20 37  1  0
 21 38  1  0
 23 39  1  0
M  END
>  <Energy>  (204) 
91.950239325092554

>  <compound_id>  (204) 
77353

>  <target_id>  (204) 
1

>  <reference_id>  (204) 
76

>  <inspiration_ids>  (204) 
[52, 76]

>  <energy_score>  (204) 
2.8107403733604883

>  <distance_score>  (204) 
17.033211048775684

>  <path>  (204) 
/opt/xchem-fragalysis-2/maxwin/BulkDock/SCRATCH/511025/C77353-P76/C77353-P76.minimised.mol

>  <scratch_subdir>  (204) 
/opt/xchem-fragalysis-2/maxwin/BulkDock/SCRATCH/511025/C77353-P76

>  <fragmenstein_runtime>  (204) 
10.27271819114685

>  <fragmenstein_outcome>  (204) 
too moved

>  <fragmenstein_mode>  (204) 
expansion

>  <fragmenstein_error>  (204) 


$$$$
C77354-P52
     RDKit          3D

 43 45  0  0  0  0  0  0  0  0999 V2000
  -10.3121  -21.2989   28.3272 C   0  0  0  0  0  0  0  0  0  0  0  0
  -10.6192  -20.4568   29.5128 C   0  0  0  0  0  0  0  0  0  0  0  0
  -10.2999  -19.3001   29.6708 O   0  0  0  0  0  0  0  0  0  0  0  0
  -11.3059  -21.1019   30.6332 C   0  0  0  0  0  0  0  0  0  0  0  0
  -11.0522  -20.4530   31.9830 C   0  0  0  0  0  0  0  0  0  0  0  0
  -12.0283  -21.4269   33.2495 S   0  0  0  0  0  0  0  0  0  0  0  0
  -13.6533  -20.8097   33.1628 C   0  0  0  0  0  0  0  0  0  0  0  0
  -14.2674  -20.2750   32.1267 N   0  0  0  0  0  0  0  0  0  0  0  0
  -15.3657  -19.6285   32.6640 C   0  0  0  0  0  0  0  0  0  0  0  0
  -16.3997  -18.8875   32.0905 C   0  0  0  0  0  0  0  0  0  0  0  0
  -17.3176  -18.2195   32.9091 C   0  0  0  0  0  0  0  0  0  0  0  0
  -17.2156  -18.2774   34.2916 C   0  0  0  0  0  0  0  0  0  0  0  0
  -16.2299  -19.0445   34.8933 C   0  0  0  0  0  0  0  0  0  0  0  0
  -15.3578  -19.7208   34.0397 C   0  0  0  0  0  0  0  0  0  0  0  0
  -14.4925  -20.7608   34.2440 N   0  0  0  0  0  0  0  0  0  0  0  0
  -14.7688  -21.7390   35.2688 C   0  0  0  0  0  0  0  0  0  0  0  0
  -16.2624  -22.1477   35.4545 C   0  0  0  0  0  0  0  0  0  0  0  0
  -16.5911  -23.5839   35.7839 C   0  0  0  0  0  0  0  0  0  0  0  0
  -15.8903  -24.2973   36.7564 C   0  0  0  0  0  0  0  0  0  0  0  0
  -16.1375  -25.6566   36.9400 C   0  0  0  0  0  0  0  0  0  0  0  0
  -17.1065  -26.3076   36.1814 C   0  0  0  0  0  0  0  0  0  0  0  0
  -17.8669  -25.5927   35.2659 C   0  0  0  0  0  0  0  0  0  0  0  0
  -17.6169  -24.2361   35.0776 C   0  0  0  0  0  0  0  0  0  0  0  0
  -10.8145  -22.2678   28.4449 H   0  0  0  0  0  0  0  0  0  0  0  0
   -9.2522  -21.5345   28.3150 H   0  0  0  0  0  0  0  0  0  0  0  0
  -10.7637  -20.8852   27.4329 H   0  0  0  0  0  0  0  0  0  0  0  0
  -12.3732  -21.1017   30.3884 H   0  0  0  0  0  0  0  0  0  0  0  0
  -10.9904  -22.1522   30.6817 H   0  0  0  0  0  0  0  0  0  0  0  0
  -11.3183  -19.4130   32.0837 H   0  0  0  0  0  0  0  0  0  0  0  0
  -10.0194  -20.5498   32.2975 H   0  0  0  0  0  0  0  0  0  0  0  0
  -16.4930  -18.7673   31.0310 H   0  0  0  0  0  0  0  0  0  0  0  0
  -18.1129  -17.6336   32.4529 H   0  0  0  0  0  0  0  0  0  0  0  0
  -17.9395  -17.7496   34.9089 H   0  0  0  0  0  0  0  0  0  0  0  0
  -16.1969  -19.1601   35.9703 H   0  0  0  0  0  0  0  0  0  0  0  0
  -14.5842  -21.1860   36.1590 H   0  0  0  0  0  0  0  0  0  0  0  0
  -14.0100  -22.5098   35.2539 H   0  0  0  0  0  0  0  0  0  0  0  0
  -16.6684  -21.5668   36.2964 H   0  0  0  0  0  0  0  0  0  0  0  0
  -16.8698  -21.8331   34.5978 H   0  0  0  0  0  0  0  0  0  0  0  0
  -15.1102  -23.8284   37.3481 H   0  0  0  0  0  0  0  0  0  0  0  0
  -15.5687  -26.2101   37.6834 H   0  0  0  0  0  0  0  0  0  0  0  0
  -17.2910  -27.3679   36.3292 H   0  0  0  0  0  0  0  0  0  0  0  0
  -18.6386  -26.0887   34.6850 H   0  0  0  0  0  0  0  0  0  0  0  0
  -18.1853  -23.6953   34.3236 H   0  0  0  0  0  0  0  0  0  0  0  0
  1  2  1  0
  2  3  2  0
  2  4  1  0
  4  5  1  0
  5  6  1  0
  6  7  1  0
  7  8  2  0
  8  9  1  0
  9 10  2  0
 10 11  1  0
 11 12  2  0
 12 13  1  0
 13 14  2  0
 14 15  1  0
 15 16  1  0
 16 17  1  0
 17 18  1  0
 18 19  2  0
 19 20  1  0
 20 21  2  0
 21 22  1  0
 22 23  2  0
 15  7  1  0
 23 18  1  0
 14  9  1  0
  1 24  1  0
  1 25  1  0
  1 26  1  0
  4 27  1  0
  4 28  1  0
  5 29  1  0
  5 30  1  0
 10 31  1  0
 11 32  1  0
 12 33  1  0
 13 34  1  0
 16 35  1  0
 16 36  1  0
 17 37  1  0
 17 38  1  0
 19 39  1  0
 20 40  1  0
 21 41  1  0
 22 42  1  0
 23 43  1  0
M  END
>  <Energy>  (205) 
52.868969114705678

>  <compound_id>  (205) 
77354

>  <target_id>  (205) 
1

>  <reference_id>  (205) 
52

>  <inspiration_ids>  (205) 
[52, 76]

>  <energy_score>  (205) 
9.13284291421013

>  <distance_score>  (205) 
19.751571143690537

>  <path>  (205) 
/opt/xchem-fragalysis-2/maxwin/BulkDock/SCRATCH/511025/C77354-P52/C77354-P52.minimised.mol

>  <scratch_subdir>  (205) 
/opt/xchem-fragalysis-2/maxwin/BulkDock/SCRATCH/511025/C77354-P52

>  <fragmenstein_runtime>  (205) 
19.154294967651367

>  <fragmenstein_outcome>  (205) 
too moved

>  <fragmenstein_mode>  (205) 
expansion

>  <fragmenstein_error>  (205) 


$$$$
C77354-P76
     RDKit          3D

 43 45  0  0  0  0  0  0  0  0999 V2000
    0.4958  -12.1881   28.6149 C   0  0  0  0  0  0  0  0  0  0  0  0
   -0.9672  -12.6334   28.4683 C   0  0  0  0  0  0  0  0  0  0  0  0
   -1.5793  -12.2361   27.4757 O   0  0  0  0  0  0  0  0  0  0  0  0
   -1.5994  -13.5505   29.7116 C   0  0  0  0  0  0  0  0  0  0  0  0
   -3.0495  -14.4826   29.7523 C   0  0  0  0  0  0  0  0  0  0  0  0
   -3.9014  -15.4882   31.5466 S   0  0  0  0  0  0  0  0  0  0  0  0
   -5.4461  -16.9186   31.5149 C   0  0  0  0  0  0  0  0  0  0  0  0
   -6.2720  -17.2496   32.5734 N   0  0  0  0  0  0  0  0  0  0  0  0
   -7.4675  -18.0734   32.1446 C   0  0  0  0  0  0  0  0  0  0  0  0
   -9.0440  -19.0729   32.8509 C   0  0  0  0  0  0  0  0  0  0  0  0
  -10.1050  -20.2174   31.7032 C   0  0  0  0  0  0  0  0  0  0  0  0
   -9.9439  -20.4053   29.7697 C   0  0  0  0  0  0  0  0  0  0  0  0
   -8.3628  -19.2591   28.9600 C   0  0  0  0  0  0  0  0  0  0  0  0
   -7.1811  -18.4040   30.3370 C   0  0  0  0  0  0  0  0  0  0  0  0
   -5.6876  -17.6791   30.3287 N   0  0  0  0  0  0  0  0  0  0  0  0
   -4.7230  -17.3945   29.2523 C   0  0  0  0  0  0  0  0  0  0  0  0
   -4.2044  -17.9708   27.8825 C   0  0  0  0  0  0  0  0  0  0  0  0
   -3.5271  -19.3083   27.6676 C   0  0  0  0  0  0  0  0  0  0  0  0
   -4.0148  -20.1571   26.6599 C   0  0  0  0  0  0  0  0  0  0  0  0
   -3.5765  -21.4724   26.5532 C   0  0  0  0  0  0  0  0  0  0  0  0
   -2.5951  -21.9345   27.4221 C   0  0  0  0  0  0  0  0  0  0  0  0
   -2.0288  -21.0736   28.3660 C   0  0  0  0  0  0  0  0  0  0  0  0
   -2.4859  -19.7595   28.4874 C   0  0  0  0  0  0  0  0  0  0  0  0
    0.7196  -11.4216   27.8724 H   0  0  0  0  0  0  0  0  0  0  0  0
    0.6409  -11.7644   29.6114 H   0  0  0  0  0  0  0  0  0  0  0  0
    1.1454  -13.0539   28.4716 H   0  0  0  0  0  0  0  0  0  0  0  0
   -1.6938  -12.8502   30.5510 H   0  0  0  0  0  0  0  0  0  0  0  0
   -0.8096  -14.2694   29.9635 H   0  0  0  0  0  0  0  0  0  0  0  0
   -3.8706  -13.8177   29.4807 H   0  0  0  0  0  0  0  0  0  0  0  0
   -2.9265  -15.3011   29.0441 H   0  0  0  0  0  0  0  0  0  0  0  0
   -9.1568  -19.0341   33.9309 H   0  0  0  0  0  0  0  0  0  0  0  0
  -10.8934  -20.7943   32.1951 H   0  0  0  0  0  0  0  0  0  0  0  0
  -10.6742  -20.9954   29.2088 H   0  0  0  0  0  0  0  0  0  0  0  0
   -8.5213  -18.5401   28.1346 H   0  0  0  0  0  0  0  0  0  0  0  0
   -3.7760  -17.4125   29.8048 H   0  0  0  0  0  0  0  0  0  0  0  0
   -4.9843  -16.3599   29.0076 H   0  0  0  0  0  0  0  0  0  0  0  0
   -3.4079  -17.2772   27.5807 H   0  0  0  0  0  0  0  0  0  0  0  0
   -4.9571  -17.8278   27.1257 H   0  0  0  0  0  0  0  0  0  0  0  0
   -4.7729  -19.7955   25.9747 H   0  0  0  0  0  0  0  0  0  0  0  0
   -3.9942  -22.1310   25.7954 H   0  0  0  0  0  0  0  0  0  0  0  0
   -2.2437  -22.9608   27.3454 H   0  0  0  0  0  0  0  0  0  0  0  0
   -1.2430  -21.4369   29.0246 H   0  0  0  0  0  0  0  0  0  0  0  0
   -2.0638  -19.1200   29.2589 H   0  0  0  0  0  0  0  0  0  0  0  0
  1  2  1  0
  2  3  2  0
  2  4  1  0
  4  5  1  0
  5  6  1  0
  6  7  1  0
  7  8  2  0
  8  9  1  0
  9 10  2  0
 10 11  1  0
 11 12  2  0
 12 13  1  0
 13 14  2  0
 14 15  1  0
 15 16  1  0
 16 17  1  0
 17 18  1  0
 18 19  2  0
 19 20  1  0
 20 21  2  0
 21 22  1  0
 22 23  2  0
 15  7  1  0
 23 18  1  0
 14  9  1  0
  1 24  1  0
  1 25  1  0
  1 26  1  0
  4 27  1  0
  4 28  1  0
  5 29  1  0
  5 30  1  0
 10 31  1  0
 11 32  1  0
 12 33  1  0
 13 34  1  0
 16 35  1  0
 16 36  1  0
 17 37  1  0
 17 38  1  0
 19 39  1  0
 20 40  1  0
 21 41  1  0
 22 42  1  0
 23 43  1  0
M  END
>  <Energy>  (206) 
846.86746060532994

>  <compound_id>  (206) 
77354

>  <target_id>  (206) 
1

>  <reference_id>  (206) 
76

>  <inspiration_ids>  (206) 
[52, 76]

>  <energy_score>  (206) 
803.1313344048334

>  <distance_score>  (206) 
14.563640425278576

>  <path>  (206) 
/opt/xchem-fragalysis-2/maxwin/BulkDock/SCRATCH/511025/C77354-P76/C77354-P76.minimised.mol

>  <scratch_subdir>  (206) 
/opt/xchem-fragalysis-2/maxwin/BulkDock/SCRATCH/511025/C77354-P76

>  <fragmenstein_runtime>  (206) 
11.757751941680908

>  <fragmenstein_outcome>  (206) 
too moved

>  <fragmenstein_mode>  (206) 
expansion

>  <fragmenstein_error>  (206) 


$$$$
C77357-P52
     RDKit          3D

 51 53  0  0  0  0  0  0  0  0999 V2000
    7.9699  -11.8761   17.7157 C   0  0  0  0  0  0  0  0  0  0  0  0
    7.1890  -10.7482   17.0531 C   0  0  0  0  0  0  0  0  0  0  0  0
    8.5401   -9.5610   16.4221 N   0  0  0  0  0  0  0  0  0  0  0  0
    9.0600   -9.1630   14.7910 C   0  0  0  0  0  0  0  0  0  0  0  0
    8.5484   -9.5501   13.7502 O   0  0  0  0  0  0  0  0  0  0  0  0
   10.7101   -8.0568   14.4354 C   0  0  0  0  0  0  0  0  0  0  0  0
   11.1282   -6.0297   14.1638 C   0  0  0  0  0  0  0  0  0  0  0  0
   10.1715   -5.1249   13.7537 C   0  0  0  0  0  0  0  0  0  0  0  0
   10.0193   -3.4279   13.4462 C   0  0  0  0  0  0  0  0  0  0  0  0
   10.9410   -2.4805   13.6957 C   0  0  0  0  0  0  0  0  0  0  0  0
   11.9150   -3.1065   14.3413 C   0  0  0  0  0  0  0  0  0  0  0  0
   11.7750   -4.6055   14.5753 C   0  0  0  0  0  0  0  0  0  0  0  0
    5.4730  -10.4941   18.1082 C   0  0  0  0  0  0  0  0  0  0  0  0
    5.2053   -9.4515   16.7676 C   0  0  0  0  0  0  0  0  0  0  0  0
    4.3747  -11.4842   19.4405 N   0  0  0  0  0  0  0  0  0  0  0  0
    3.2973  -10.8929   20.9233 C   0  0  0  0  0  0  0  0  0  0  0  0
    3.1587   -9.7327   21.0712 O   0  0  0  0  0  0  0  0  0  0  0  0
    2.4478  -11.8777   22.4809 C   0  0  0  0  0  0  0  0  0  0  0  0
    3.2456  -12.9397   22.8819 C   0  0  0  0  0  0  0  0  0  0  0  0
    3.9784  -12.9847   24.1283 C   0  0  0  0  0  0  0  0  0  0  0  0
    3.4964  -12.5407   25.3732 C   0  0  0  0  0  0  0  0  0  0  0  0
    2.1032  -12.0471   25.4254 C   0  0  0  0  0  0  0  0  0  0  0  0
    1.6992  -11.1161   26.3315 N   0  0  0  0  0  0  0  0  0  0  0  0
    0.6843  -10.6443   25.6346 C   0  0  0  0  0  0  0  0  0  0  0  0
    0.4243  -11.9942   25.4213 N   0  0  0  0  0  0  0  0  0  0  0  0
   -0.9935  -12.9432   26.5635 C   0  0  0  0  0  0  0  0  0  0  0  0
    1.3998  -11.5741   23.9599 C   0  0  0  0  0  0  0  0  0  0  0  0
    8.9734  -11.9840   17.2943 H   0  0  0  0  0  0  0  0  0  0  0  0
    7.4408  -12.8232   17.5613 H   0  0  0  0  0  0  0  0  0  0  0  0
    8.0448  -11.7479   18.7982 H   0  0  0  0  0  0  0  0  0  0  0  0
    6.8487  -11.1251   16.0767 H   0  0  0  0  0  0  0  0  0  0  0  0
    9.1865   -9.1763   17.0769 H   0  0  0  0  0  0  0  0  0  0  0  0
   11.1099   -8.4630   13.5371 H   0  0  0  0  0  0  0  0  0  0  0  0
   11.3854   -8.8533   14.7682 H   0  0  0  0  0  0  0  0  0  0  0  0
    9.4036   -5.6637   13.2059 H   0  0  0  0  0  0  0  0  0  0  0  0
    9.1592   -3.1277   12.8373 H   0  0  0  0  0  0  0  0  0  0  0  0
   10.8602   -1.4322   13.4812 H   0  0  0  0  0  0  0  0  0  0  0  0
   12.6711   -2.5454   14.8866 H   0  0  0  0  0  0  0  0  0  0  0  0
   12.0278   -4.4153   15.6608 H   0  0  0  0  0  0  0  0  0  0  0  0
    5.1330  -11.3907   17.5452 H   0  0  0  0  0  0  0  0  0  0  0  0
    6.1365   -8.9040   16.6642 H   0  0  0  0  0  0  0  0  0  0  0  0
    5.0307  -10.0548   15.8656 H   0  0  0  0  0  0  0  0  0  0  0  0
    4.4986   -8.6151   16.7055 H   0  0  0  0  0  0  0  0  0  0  0  0
    4.3324  -12.4955   19.3903 H   0  0  0  0  0  0  0  0  0  0  0  0
    3.5320  -13.6952   22.1988 H   0  0  0  0  0  0  0  0  0  0  0  0
    4.8519  -13.6025   24.0433 H   0  0  0  0  0  0  0  0  0  0  0  0
    3.8654  -12.7050   26.3561 H   0  0  0  0  0  0  0  0  0  0  0  0
    0.1141   -9.7538   25.8305 H   0  0  0  0  0  0  0  0  0  0  0  0
   -0.6010  -13.5379   27.4310 H   0  0  0  0  0  0  0  0  0  0  0  0
   -1.8613  -13.1406   25.8324 H   0  0  0  0  0  0  0  0  0  0  0  0
   -1.7376  -12.5889   27.2891 H   0  0  0  0  0  0  0  0  0  0  0  0
  1  2  1  0
  2  3  1  0
  3  4  1  0
  4  5  2  0
  4  6  1  0
  6  7  1  0
  7  8  2  0
  8  9  1  0
  9 10  2  0
 10 11  1  0
 11 12  2  0
  2 13  1  0
 13 14  1  0
 13 15  1  0
 15 16  1  0
 16 17  2  0
 16 18  1  0
 18 19  2  0
 19 20  1  0
 20 21  2  0
 21 22  1  0
 22 23  1  0
 23 24  2  0
 24 25  1  0
 25 26  1  0
 25 27  1  0
 12  7  1  0
 27 18  1  0
 27 22  2  0
  1 28  1  0
  1 29  1  0
  1 30  1  0
  2 31  1  0
  3 32  1  0
  6 33  1  0
  6 34  1  0
  8 35  1  0
  9 36  1  0
 10 37  1  0
 11 38  1  0
 12 39  1  0
 13 40  1  0
 14 41  1  0
 14 42  1  0
 14 43  1  0
 15 44  1  0
 19 45  1  0
 20 46  1  0
 21 47  1  0
 24 48  1  0
 26 49  1  0
 26 50  1  0
 26 51  1  0
M  END
>  <Energy>  (207) 
1485.5650140089056

>  <compound_id>  (207) 
77357

>  <target_id>  (207) 
1

>  <reference_id>  (207) 
52

>  <inspiration_ids>  (207) 
[52, 76]

>  <energy_score>  (207) 
1408.0131594973464

>  <distance_score>  (207) 
14.81163596901733

>  <path>  (207) 
/opt/xchem-fragalysis-2/maxwin/BulkDock/SCRATCH/511025/C77357-P52/C77357-P52.minimised.mol

>  <scratch_subdir>  (207) 
/opt/xchem-fragalysis-2/maxwin/BulkDock/SCRATCH/511025/C77357-P52

>  <fragmenstein_runtime>  (207) 
35.3289213180542

>  <fragmenstein_outcome>  (207) 
too moved

>  <fragmenstein_mode>  (207) 
expansion

>  <fragmenstein_error>  (207) 


$$$$
C77357-P76
     RDKit          3D

 51 53  0  0  0  0  0  0  0  0999 V2000
    7.6153  -12.7907   17.6227 C   0  0  0  0  0  0  0  0  0  0  0  0
    6.6041  -11.8136   17.0450 C   0  0  0  0  0  0  0  0  0  0  0  0
    7.4539  -10.6419   16.3457 N   0  0  0  0  0  0  0  0  0  0  0  0
    8.9457  -10.3524   16.3612 C   0  0  0  0  0  0  0  0  0  0  0  0
    9.8608  -10.9884   16.8400 O   0  0  0  0  0  0  0  0  0  0  0  0
    9.6150   -8.6618   15.6562 C   0  0  0  0  0  0  0  0  0  0  0  0
    8.2292   -7.1711   14.9681 C   0  0  0  0  0  0  0  0  0  0  0  0
    7.0930   -6.1450   15.9334 C   0  0  0  0  0  0  0  0  0  0  0  0
    5.7189   -6.3094   16.4370 C   0  0  0  0  0  0  0  0  0  0  0  0
    4.8750   -7.2703   15.9289 C   0  0  0  0  0  0  0  0  0  0  0  0
    5.3116   -8.0308   14.8731 C   0  0  0  0  0  0  0  0  0  0  0  0
    6.6901   -7.9984   14.4601 C   0  0  0  0  0  0  0  0  0  0  0  0
    5.2855  -12.6222   16.3180 C   0  0  0  0  0  0  0  0  0  0  0  0
    4.3734  -11.5207   15.7732 C   0  0  0  0  0  0  0  0  0  0  0  0
    4.4570  -13.8562   17.1047 N   0  0  0  0  0  0  0  0  0  0  0  0
    3.0220  -14.3953   16.9066 C   0  0  0  0  0  0  0  0  0  0  0  0
    2.1305  -14.0001   16.1928 O   0  0  0  0  0  0  0  0  0  0  0  0
    2.5646  -15.8059   17.6587 C   0  0  0  0  0  0  0  0  0  0  0  0
    3.5562  -16.8017   17.8256 C   0  0  0  0  0  0  0  0  0  0  0  0
    3.3062  -18.1208   18.2825 C   0  0  0  0  0  0  0  0  0  0  0  0
    2.0429  -18.5357   18.7024 C   0  0  0  0  0  0  0  0  0  0  0  0
    0.9969  -17.6149   18.6281 C   0  0  0  0  0  0  0  0  0  0  0  0
   -0.2772  -17.8376   19.0985 N   0  0  0  0  0  0  0  0  0  0  0  0
   -0.9492  -16.8090   18.6753 C   0  0  0  0  0  0  0  0  0  0  0  0
   -0.1539  -15.9601   17.9346 N   0  0  0  0  0  0  0  0  0  0  0  0
   -0.7509  -14.8903   17.1873 C   0  0  0  0  0  0  0  0  0  0  0  0
    1.1964  -16.3336   18.0234 C   0  0  0  0  0  0  0  0  0  0  0  0
    8.2112  -13.2550   16.8305 H   0  0  0  0  0  0  0  0  0  0  0  0
    8.2920  -12.2996   18.3292 H   0  0  0  0  0  0  0  0  0  0  0  0
    7.1115  -13.5902   18.1750 H   0  0  0  0  0  0  0  0  0  0  0  0
    6.1542  -11.2855   17.8940 H   0  0  0  0  0  0  0  0  0  0  0  0
    6.9858   -9.9415   15.7869 H   0  0  0  0  0  0  0  0  0  0  0  0
   10.6446   -9.1134   15.7689 H   0  0  0  0  0  0  0  0  0  0  0  0
    9.9477   -9.2986   14.7807 H   0  0  0  0  0  0  0  0  0  0  0  0
    7.5382   -5.2196   16.1483 H   0  0  0  0  0  0  0  0  0  0  0  0
    5.2985   -5.6416   17.1805 H   0  0  0  0  0  0  0  0  0  0  0  0
    3.8451   -7.3395   16.2705 H   0  0  0  0  0  0  0  0  0  0  0  0
    4.6092   -8.6606   14.3294 H   0  0  0  0  0  0  0  0  0  0  0  0
    6.6930   -8.5205   13.4663 H   0  0  0  0  0  0  0  0  0  0  0  0
    5.7119  -13.1615   15.4626 H   0  0  0  0  0  0  0  0  0  0  0  0
    3.9584  -10.9104   16.5776 H   0  0  0  0  0  0  0  0  0  0  0  0
    4.9214  -10.8753   15.0845 H   0  0  0  0  0  0  0  0  0  0  0  0
    3.5367  -11.9530   15.2169 H   0  0  0  0  0  0  0  0  0  0  0  0
    4.9141  -14.3808   17.8458 H   0  0  0  0  0  0  0  0  0  0  0  0
    4.5788  -16.5719   17.5258 H   0  0  0  0  0  0  0  0  0  0  0  0
    4.1377  -18.8223   18.3373 H   0  0  0  0  0  0  0  0  0  0  0  0
    1.8757  -19.5274   19.1074 H   0  0  0  0  0  0  0  0  0  0  0  0
   -2.0085  -16.6441   18.8246 H   0  0  0  0  0  0  0  0  0  0  0  0
   -0.1418  -13.9958   17.2890 H   0  0  0  0  0  0  0  0  0  0  0  0
   -0.7944  -15.1922   16.1376 H   0  0  0  0  0  0  0  0  0  0  0  0
   -1.7593  -14.6810   17.5541 H   0  0  0  0  0  0  0  0  0  0  0  0
  1  2  1  0
  2  3  1  0
  3  4  1  0
  4  5  2  0
  4  6  1  0
  6  7  1  0
  7  8  2  0
  8  9  1  0
  9 10  2  0
 10 11  1  0
 11 12  2  0
  2 13  1  0
 13 14  1  0
 13 15  1  0
 15 16  1  0
 16 17  2  0
 16 18  1  0
 18 19  2  0
 19 20  1  0
 20 21  2  0
 21 22  1  0
 22 23  1  0
 23 24  2  0
 24 25  1  0
 25 26  1  0
 25 27  1  0
 12  7  1  0
 27 18  1  0
 27 22  2  0
  1 28  1  0
  1 29  1  0
  1 30  1  0
  2 31  1  0
  3 32  1  0
  6 33  1  0
  6 34  1  0
  8 35  1  0
  9 36  1  0
 10 37  1  0
 11 38  1  0
 12 39  1  0
 13 40  1  0
 14 41  1  0
 14 42  1  0
 14 43  1  0
 15 44  1  0
 19 45  1  0
 20 46  1  0
 21 47  1  0
 24 48  1  0
 26 49  1  0
 26 50  1  0
 26 51  1  0
M  END
>  <Energy>  (208) 
546.65559600803601

>  <compound_id>  (208) 
77357

>  <target_id>  (208) 
1

>  <reference_id>  (208) 
76

>  <inspiration_ids>  (208) 
[52, 76]

>  <energy_score>  (208) 
469.10374149647873

>  <distance_score>  (208) 
16.39583189806062

>  <path>  (208) 
/opt/xchem-fragalysis-2/maxwin/BulkDock/SCRATCH/511025/C77357-P76/C77357-P76.minimised.mol

>  <scratch_subdir>  (208) 
/opt/xchem-fragalysis-2/maxwin/BulkDock/SCRATCH/511025/C77357-P76

>  <fragmenstein_runtime>  (208) 
36.94889163970947

>  <fragmenstein_outcome>  (208) 
too moved

>  <fragmenstein_mode>  (208) 
expansion

>  <fragmenstein_error>  (208) 


$$$$
C77359-P52
     RDKit          3D

 41 43  0  0  0  0  0  0  0  0999 V2000
    6.6934  -18.3214   18.2976 C   0  0  0  0  0  0  0  0  0  0  0  0
    6.7107  -17.6409   19.6698 C   0  0  0  0  0  0  0  0  0  0  0  0
    5.5505  -18.0610   20.5125 N   0  0  0  0  0  0  0  0  0  0  0  0
    4.3571  -18.8557   20.1820 C   0  0  0  0  0  0  0  0  0  0  0  0
    3.9778  -19.2973   19.1305 O   0  0  0  0  0  0  0  0  0  0  0  0
    3.5259  -19.2551   21.4662 C   0  0  0  0  0  0  0  0  0  0  0  0
    2.0193  -19.6501   21.2573 C   0  0  0  0  0  0  0  0  0  0  0  0
    1.3250  -20.2852   22.5918 C   0  0  0  0  0  0  0  0  0  0  0  0
   -0.1300  -20.5719   22.7493 N   0  0  0  0  0  0  0  0  0  0  0  0
   -1.1418  -20.1043   21.9437 C   0  0  0  0  0  0  0  0  0  0  0  0
   -2.3484  -20.3576   22.4135 N   0  0  0  0  0  0  0  0  0  0  0  0
   -2.1483  -21.0213   23.5992 C   0  0  0  0  0  0  0  0  0  0  0  0
   -3.1021  -21.4580   24.5458 C   0  0  0  0  0  0  0  0  0  0  0  0
   -2.6707  -22.0644   25.7294 C   0  0  0  0  0  0  0  0  0  0  0  0
   -1.3101  -22.2603   25.9542 C   0  0  0  0  0  0  0  0  0  0  0  0
   -0.3424  -21.8455   25.0138 C   0  0  0  0  0  0  0  0  0  0  0  0
   -0.7782  -21.2127   23.8306 C   0  0  0  0  0  0  0  0  0  0  0  0
    7.0572  -16.1417   19.5343 C   0  0  0  0  0  0  0  0  0  0  0  0
    7.1399  -15.2686   18.4481 C   0  0  0  0  0  0  0  0  0  0  0  0
    7.6933  -14.0451   18.9107 C   0  0  0  0  0  0  0  0  0  0  0  0
    7.9349  -14.2330   20.2488 C   0  0  0  0  0  0  0  0  0  0  0  0
    7.5555  -15.4849   20.6378 O   0  0  0  0  0  0  0  0  0  0  0  0
    5.8543  -17.9677   17.6882 H   0  0  0  0  0  0  0  0  0  0  0  0
    6.6033  -19.4084   18.3989 H   0  0  0  0  0  0  0  0  0  0  0  0
    7.6169  -18.1209   17.7426 H   0  0  0  0  0  0  0  0  0  0  0  0
    7.5663  -18.0679   20.2117 H   0  0  0  0  0  0  0  0  0  0  0  0
    5.5092  -17.7884   21.4975 H   0  0  0  0  0  0  0  0  0  0  0  0
    4.0451  -20.1296   21.8802 H   0  0  0  0  0  0  0  0  0  0  0  0
    3.5881  -18.4810   22.2237 H   0  0  0  0  0  0  0  0  0  0  0  0
    1.4371  -18.8086   20.8742 H   0  0  0  0  0  0  0  0  0  0  0  0
    1.9592  -20.4204   20.4780 H   0  0  0  0  0  0  0  0  0  0  0  0
    1.5656  -19.6278   23.4322 H   0  0  0  0  0  0  0  0  0  0  0  0
    1.8146  -21.2493   22.7784 H   0  0  0  0  0  0  0  0  0  0  0  0
   -0.9337  -19.5666   21.0283 H   0  0  0  0  0  0  0  0  0  0  0  0
   -4.1568  -21.2914   24.3567 H   0  0  0  0  0  0  0  0  0  0  0  0
   -3.4011  -22.3707   26.4700 H   0  0  0  0  0  0  0  0  0  0  0  0
   -0.9815  -22.7340   26.8764 H   0  0  0  0  0  0  0  0  0  0  0  0
    0.7155  -21.9790   25.2140 H   0  0  0  0  0  0  0  0  0  0  0  0
    6.8534  -15.5054   17.4320 H   0  0  0  0  0  0  0  0  0  0  0  0
    7.9028  -13.1545   18.3355 H   0  0  0  0  0  0  0  0  0  0  0  0
    8.3530  -13.6139   21.0300 H   0  0  0  0  0  0  0  0  0  0  0  0
  1  2  1  0
  2  3  1  0
  3  4  1  0
  4  5  2  0
  4  6  1  0
  6  7  1  0
  7  8  1  0
  8  9  1  0
  9 10  1  0
 10 11  2  0
 11 12  1  0
 12 13  2  0
 13 14  1  0
 14 15  2  0
 15 16  1  0
 16 17  2  0
  2 18  1  0
 18 19  2  0
 19 20  1  0
 20 21  2  0
 21 22  1  0
 17  9  1  0
 22 18  1  0
 17 12  1  0
  1 23  1  0
  1 24  1  0
  1 25  1  0
  2 26  1  0
  3 27  1  0
  6 28  1  0
  6 29  1  0
  7 30  1  0
  7 31  1  0
  8 32  1  0
  8 33  1  0
 10 34  1  0
 13 35  1  0
 14 36  1  0
 15 37  1  0
 16 38  1  0
 19 39  1  0
 20 40  1  0
 21 41  1  0
M  END
>  <Energy>  (209) 
24.117140502066547

>  <compound_id>  (209) 
77359

>  <target_id>  (209) 
1

>  <reference_id>  (209) 
52

>  <inspiration_ids>  (209) 
[52, 76]

>  <energy_score>  (209) 
-1.632961331643287

>  <distance_score>  (209) 
17.078275530379194

>  <path>  (209) 
/opt/xchem-fragalysis-2/maxwin/BulkDock/SCRATCH/511025/C77359-P52/C77359-P52.minimised.mol

>  <scratch_subdir>  (209) 
/opt/xchem-fragalysis-2/maxwin/BulkDock/SCRATCH/511025/C77359-P52

>  <fragmenstein_runtime>  (209) 
32.28387498855591

>  <fragmenstein_outcome>  (209) 
too moved

>  <fragmenstein_mode>  (209) 
expansion

>  <fragmenstein_error>  (209) 


$$$$
C77359-P76
     RDKit          3D

 41 43  0  0  0  0  0  0  0  0999 V2000
    7.1914  -10.7520   28.5653 C   0  0  0  0  0  0  0  0  0  0  0  0
    7.2301  -11.8327   27.4807 C   0  0  0  0  0  0  0  0  0  0  0  0
    6.0613  -12.7506   27.5740 N   0  0  0  0  0  0  0  0  0  0  0  0
    5.1602  -13.0502   28.6956 C   0  0  0  0  0  0  0  0  0  0  0  0
    5.0927  -12.5693   29.7950 O   0  0  0  0  0  0  0  0  0  0  0  0
    4.1804  -14.2562   28.4111 C   0  0  0  0  0  0  0  0  0  0  0  0
    2.6825  -14.0697   28.8881 C   0  0  0  0  0  0  0  0  0  0  0  0
    1.9752  -15.4224   29.4652 C   0  0  0  0  0  0  0  0  0  0  0  0
    0.5174  -15.5284   29.7691 N   0  0  0  0  0  0  0  0  0  0  0  0
   -0.4177  -14.5270   29.6579 C   0  0  0  0  0  0  0  0  0  0  0  0
   -1.6472  -14.9363   29.8947 N   0  0  0  0  0  0  0  0  0  0  0  0
   -1.5469  -16.2661   30.2021 C   0  0  0  0  0  0  0  0  0  0  0  0
   -2.5700  -17.1812   30.5364 C   0  0  0  0  0  0  0  0  0  0  0  0
   -2.2386  -18.5054   30.8328 C   0  0  0  0  0  0  0  0  0  0  0  0
   -0.9046  -18.9061   30.7927 C   0  0  0  0  0  0  0  0  0  0  0  0
    0.1310  -18.0079   30.4493 C   0  0  0  0  0  0  0  0  0  0  0  0
   -0.2076  -16.6753   30.1514 C   0  0  0  0  0  0  0  0  0  0  0  0
    7.4925  -11.1947   26.0973 C   0  0  0  0  0  0  0  0  0  0  0  0
    7.5680   -9.8795   25.6376 C   0  0  0  0  0  0  0  0  0  0  0  0
    7.9984   -9.9136   24.2855 C   0  0  0  0  0  0  0  0  0  0  0  0
    8.1887  -11.2411   23.9941 C   0  0  0  0  0  0  0  0  0  0  0  0
    7.8922  -12.0198   25.0744 O   0  0  0  0  0  0  0  0  0  0  0  0
    6.2894  -10.1354   28.4797 H   0  0  0  0  0  0  0  0  0  0  0  0
    8.0626  -10.0903   28.5026 H   0  0  0  0  0  0  0  0  0  0  0  0
    7.2029  -11.1961   29.5657 H   0  0  0  0  0  0  0  0  0  0  0  0
    8.0965  -12.4747   27.6868 H   0  0  0  0  0  0  0  0  0  0  0  0
    5.8884  -13.4099   26.8241 H   0  0  0  0  0  0  0  0  0  0  0  0
    4.2058  -14.5218   27.3519 H   0  0  0  0  0  0  0  0  0  0  0  0
    4.6134  -15.1074   28.9520 H   0  0  0  0  0  0  0  0  0  0  0  0
    2.6263  -13.3126   29.6783 H   0  0  0  0  0  0  0  0  0  0  0  0
    2.0686  -13.7030   28.0613 H   0  0  0  0  0  0  0  0  0  0  0  0
    2.1635  -16.2294   28.7471 H   0  0  0  0  0  0  0  0  0  0  0  0
    2.4741  -15.6834   30.4063 H   0  0  0  0  0  0  0  0  0  0  0  0
   -0.1490  -13.5164   29.3804 H   0  0  0  0  0  0  0  0  0  0  0  0
   -3.6008  -16.8436   30.5701 H   0  0  0  0  0  0  0  0  0  0  0  0
   -3.0214  -19.2116   31.0988 H   0  0  0  0  0  0  0  0  0  0  0  0
   -0.6520  -19.9378   31.0306 H   0  0  0  0  0  0  0  0  0  0  0  0
    1.1622  -18.3453   30.4223 H   0  0  0  0  0  0  0  0  0  0  0  0
    7.3526   -8.9968   26.2242 H   0  0  0  0  0  0  0  0  0  0  0  0
    8.1628   -9.0807   23.6171 H   0  0  0  0  0  0  0  0  0  0  0  0
    8.5137  -11.7770   23.1125 H   0  0  0  0  0  0  0  0  0  0  0  0
  1  2  1  0
  2  3  1  0
  3  4  1  0
  4  5  2  0
  4  6  1  0
  6  7  1  0
  7  8  1  0
  8  9  1  0
  9 10  1  0
 10 11  2  0
 11 12  1  0
 12 13  2  0
 13 14  1  0
 14 15  2  0
 15 16  1  0
 16 17  2  0
  2 18  1  0
 18 19  2  0
 19 20  1  0
 20 21  2  0
 21 22  1  0
 17  9  1  0
 22 18  1  0
 17 12  1  0
  1 23  1  0
  1 24  1  0
  1 25  1  0
  2 26  1  0
  3 27  1  0
  6 28  1  0
  6 29  1  0
  7 30  1  0
  7 31  1  0
  8 32  1  0
  8 33  1  0
 10 34  1  0
 13 35  1  0
 14 36  1  0
 15 37  1  0
 16 38  1  0
 19 39  1  0
 20 40  1  0
 21 41  1  0
M  END
>  <Energy>  (210) 
20.945941212108398

>  <compound_id>  (210) 
77359

>  <target_id>  (210) 
1

>  <reference_id>  (210) 
76

>  <inspiration_ids>  (210) 
[52, 76]

>  <energy_score>  (210) 
-4.804160621603501

>  <distance_score>  (210) 
16.170176983039095

>  <path>  (210) 
/opt/xchem-fragalysis-2/maxwin/BulkDock/SCRATCH/511025/C77359-P76/C77359-P76.minimised.mol

>  <scratch_subdir>  (210) 
/opt/xchem-fragalysis-2/maxwin/BulkDock/SCRATCH/511025/C77359-P76

>  <fragmenstein_runtime>  (210) 
18.085670948028564

>  <fragmenstein_outcome>  (210) 
too moved

>  <fragmenstein_mode>  (210) 
expansion

>  <fragmenstein_error>  (210) 


$$$$
C57418-P52
     RDKit          3D

 42 43  0  0  0  0  0  0  0  0999 V2000
    3.0526  -15.1954   26.5435 C   0  0  0  0  0  0  0  0  0  0  0  0
    2.5881  -13.9943   27.1078 N   0  0  0  0  0  0  0  0  0  0  0  0
    1.2918  -14.8109   28.3087 C   0  0  0  0  0  0  0  0  0  0  0  0
    0.8054  -16.2083   29.6913 C   0  0  0  0  0  0  0  0  0  0  0  0
    0.1985  -17.9687   30.0680 C   0  0  0  0  0  0  0  0  0  0  0  0
   -0.5092  -18.9195   29.2182 C   0  0  0  0  0  0  0  0  0  0  0  0
   -1.1981  -20.1533   29.5539 C   0  0  0  0  0  0  0  0  0  0  0  0
   -1.3823  -20.4381   30.8774 C   0  0  0  0  0  0  0  0  0  0  0  0
   -2.0694  -21.3939   31.5732 N   0  0  0  0  0  0  0  0  0  0  0  0
   -1.7765  -21.2063   32.8939 C   0  0  0  0  0  0  0  0  0  0  0  0
   -1.0094  -20.1543   33.0746 N   0  0  0  0  0  0  0  0  0  0  0  0
   -0.7486  -19.6695   31.8140 C   0  0  0  0  0  0  0  0  0  0  0  0
    0.0653  -18.5528   31.3812 C   0  0  0  0  0  0  0  0  0  0  0  0
    3.6883  -12.5066   26.3235 C   0  0  0  0  0  0  0  0  0  0  0  0
    5.0601  -10.8975   26.0901 C   0  0  0  0  0  0  0  0  0  0  0  0
    5.4198  -10.8364   24.5619 C   0  0  0  0  0  0  0  0  0  0  0  0
    6.9466  -10.4983   25.9735 C   0  0  0  0  0  0  0  0  0  0  0  0
    4.9986   -9.3260   26.8118 C   0  0  0  0  0  0  0  0  0  0  0  0
    5.5552   -8.2690   25.9689 O   0  0  0  0  0  0  0  0  0  0  0  0
    3.7902  -15.4451   27.2770 H   0  0  0  0  0  0  0  0  0  0  0  0
    3.3710  -15.1953   25.5321 H   0  0  0  0  0  0  0  0  0  0  0  0
    2.2572  -15.8963   26.3872 H   0  0  0  0  0  0  0  0  0  0  0  0
    0.8620  -14.0014   28.8568 H   0  0  0  0  0  0  0  0  0  0  0  0
    0.7310  -15.2776   27.5258 H   0  0  0  0  0  0  0  0  0  0  0  0
    0.1749  -15.6203   30.3224 H   0  0  0  0  0  0  0  0  0  0  0  0
    1.7210  -16.2317   30.2642 H   0  0  0  0  0  0  0  0  0  0  0  0
   -0.7007  -18.6978   28.1755 H   0  0  0  0  0  0  0  0  0  0  0  0
   -1.6328  -20.7927   28.8087 H   0  0  0  0  0  0  0  0  0  0  0  0
   -2.6416  -22.1346   31.1921 H   0  0  0  0  0  0  0  0  0  0  0  0
   -2.1312  -21.8685   33.6721 H   0  0  0  0  0  0  0  0  0  0  0  0
    0.4985  -18.2463   32.3008 H   0  0  0  0  0  0  0  0  0  0  0  0
    2.7439  -12.0654   26.0158 H   0  0  0  0  0  0  0  0  0  0  0  0
    3.8945  -13.0310   25.3807 H   0  0  0  0  0  0  0  0  0  0  0  0
    6.4209  -11.0336   24.1829 H   0  0  0  0  0  0  0  0  0  0  0  0
    4.7872  -11.6485   24.2844 H   0  0  0  0  0  0  0  0  0  0  0  0
    5.3575   -9.9130   24.0345 H   0  0  0  0  0  0  0  0  0  0  0  0
    7.3834  -10.0501   26.8875 H   0  0  0  0  0  0  0  0  0  0  0  0
    7.1780   -9.6921   25.2515 H   0  0  0  0  0  0  0  0  0  0  0  0
    7.5419  -11.3798   25.7054 H   0  0  0  0  0  0  0  0  0  0  0  0
    5.6040   -9.3457   27.7267 H   0  0  0  0  0  0  0  0  0  0  0  0
    4.0503   -8.9315   27.1594 H   0  0  0  0  0  0  0  0  0  0  0  0
    5.6437   -7.4903   26.5474 H   0  0  0  0  0  0  0  0  0  0  0  0
  1  2  1  0
  2  3  1  0
  3  4  1  0
  4  5  1  0
  5  6  2  0
  6  7  1  0
  7  8  2  0
  8  9  1  0
  9 10  1  0
 10 11  2  0
 11 12  1  0
 12 13  2  0
  2 14  1  0
 14 15  1  0
 15 16  1  0
 15 17  1  0
 15 18  1  0
 18 19  1  0
 13  5  1  0
 12  8  1  0
  1 20  1  0
  1 21  1  0
  1 22  1  0
  3 23  1  0
  3 24  1  0
  4 25  1  0
  4 26  1  0
  6 27  1  0
  7 28  1  0
  9 29  1  0
 10 30  1  0
 13 31  1  0
 14 32  1  0
 14 33  1  0
 16 34  1  0
 16 35  1  0
 16 36  1  0
 17 37  1  0
 17 38  1  0
 17 39  1  0
 18 40  1  0
 18 41  1  0
 19 42  1  0
M  END
>  <Energy>  (211) 
729.73834901754458

>  <compound_id>  (211) 
57418

>  <target_id>  (211) 
1

>  <reference_id>  (211) 
52

>  <inspiration_ids>  (211) 
[52, 76]

>  <energy_score>  (211) 
647.3564212589417

>  <distance_score>  (211) 
15.045752216976599

>  <path>  (211) 
/opt/xchem-fragalysis-2/maxwin/BulkDock/SCRATCH/511025/C57418-P52/C57418-P52.minimised.mol

>  <scratch_subdir>  (211) 
/opt/xchem-fragalysis-2/maxwin/BulkDock/SCRATCH/511025/C57418-P52

>  <fragmenstein_runtime>  (211) 
16.18344020843506

>  <fragmenstein_outcome>  (211) 
too moved

>  <fragmenstein_mode>  (211) 
expansion

>  <fragmenstein_error>  (211) 


$$$$
C57418-P76
     RDKit          3D

 42 43  0  0  0  0  0  0  0  0999 V2000
    2.9512  -14.2404   23.7125 C   0  0  0  0  0  0  0  0  0  0  0  0
    1.7359  -13.3654   23.9985 N   0  0  0  0  0  0  0  0  0  0  0  0
   -0.1260  -14.2336   24.1987 C   0  0  0  0  0  0  0  0  0  0  0  0
   -1.6967  -15.6022   24.7231 C   0  0  0  0  0  0  0  0  0  0  0  0
   -1.9558  -17.4114   25.7946 C   0  0  0  0  0  0  0  0  0  0  0  0
   -2.4564  -18.6588   25.7608 C   0  0  0  0  0  0  0  0  0  0  0  0
   -3.0830  -20.2321   25.7271 C   0  0  0  0  0  0  0  0  0  0  0  0
   -2.7876  -20.6412   26.9405 C   0  0  0  0  0  0  0  0  0  0  0  0
   -3.0884  -21.6860   27.7427 N   0  0  0  0  0  0  0  0  0  0  0  0
   -2.0401  -21.8150   28.5988 C   0  0  0  0  0  0  0  0  0  0  0  0
   -1.1132  -20.9061   28.3500 N   0  0  0  0  0  0  0  0  0  0  0  0
   -1.6281  -19.9586   27.3732 C   0  0  0  0  0  0  0  0  0  0  0  0
   -1.1686  -18.2941   26.7858 C   0  0  0  0  0  0  0  0  0  0  0  0
    2.8994  -12.0224   23.1920 C   0  0  0  0  0  0  0  0  0  0  0  0
    4.4674  -10.8455   22.4795 C   0  0  0  0  0  0  0  0  0  0  0  0
    6.0677  -10.9367   23.5603 C   0  0  0  0  0  0  0  0  0  0  0  0
    3.9635   -9.2837   22.0030 C   0  0  0  0  0  0  0  0  0  0  0  0
    5.4651  -11.0402   20.9402 C   0  0  0  0  0  0  0  0  0  0  0  0
    6.6077  -10.1408   20.8377 O   0  0  0  0  0  0  0  0  0  0  0  0
    3.0719  -14.1646   22.6981 H   0  0  0  0  0  0  0  0  0  0  0  0
    3.0409  -15.2898   23.6245 H   0  0  0  0  0  0  0  0  0  0  0  0
    3.6975  -14.0100   24.4600 H   0  0  0  0  0  0  0  0  0  0  0  0
   -0.8231  -13.7309   24.9041 H   0  0  0  0  0  0  0  0  0  0  0  0
   -0.3656  -14.0769   23.1516 H   0  0  0  0  0  0  0  0  0  0  0  0
   -2.6078  -15.4590   24.1275 H   0  0  0  0  0  0  0  0  0  0  0  0
   -2.1731  -14.9447   25.5133 H   0  0  0  0  0  0  0  0  0  0  0  0
   -2.8915  -18.4815   27.0081 H   0  0  0  0  0  0  0  0  0  0  0  0
   -3.6843  -20.6299   24.9327 H   0  0  0  0  0  0  0  0  0  0  0  0
   -3.8615  -22.3250   27.6324 H   0  0  0  0  0  0  0  0  0  0  0  0
   -1.9775  -22.5964   29.3440 H   0  0  0  0  0  0  0  0  0  0  0  0
   -0.2949  -17.8850   27.2704 H   0  0  0  0  0  0  0  0  0  0  0  0
    3.1906  -12.5769   22.3103 H   0  0  0  0  0  0  0  0  0  0  0  0
    1.9867  -11.5270   23.1777 H   0  0  0  0  0  0  0  0  0  0  0  0
    6.1147  -11.7664   24.2606 H   0  0  0  0  0  0  0  0  0  0  0  0
    6.3394  -10.3090   24.3973 H   0  0  0  0  0  0  0  0  0  0  0  0
    6.9608  -11.0491   22.9274 H   0  0  0  0  0  0  0  0  0  0  0  0
    4.4756   -8.9470   21.0941 H   0  0  0  0  0  0  0  0  0  0  0  0
    2.9134   -9.2112   21.7377 H   0  0  0  0  0  0  0  0  0  0  0  0
    4.0729   -8.4648   22.6951 H   0  0  0  0  0  0  0  0  0  0  0  0
    4.9541  -10.7890   20.0095 H   0  0  0  0  0  0  0  0  0  0  0  0
    5.8285  -12.0639   20.8121 H   0  0  0  0  0  0  0  0  0  0  0  0
    6.5468   -9.5478   21.6136 H   0  0  0  0  0  0  0  0  0  0  0  0
  1  2  1  0
  2  3  1  0
  3  4  1  0
  4  5  1  0
  5  6  2  0
  6  7  1  0
  7  8  2  0
  8  9  1  0
  9 10  1  0
 10 11  2  0
 11 12  1  0
 12 13  2  0
  2 14  1  0
 14 15  1  0
 15 16  1  0
 15 17  1  0
 15 18  1  0
 18 19  1  0
 13  5  1  0
 12  8  1  0
  1 20  1  0
  1 21  1  0
  1 22  1  0
  3 23  1  0
  3 24  1  0
  4 25  1  0
  4 26  1  0
  6 27  1  0
  7 28  1  0
  9 29  1  0
 10 30  1  0
 13 31  1  0
 14 32  1  0
 14 33  1  0
 16 34  1  0
 16 35  1  0
 16 36  1  0
 17 37  1  0
 17 38  1  0
 17 39  1  0
 18 40  1  0
 18 41  1  0
 19 42  1  0
M  END
>  <Energy>  (212) 
1159.0638455957762

>  <compound_id>  (212) 
57418

>  <target_id>  (212) 
1

>  <reference_id>  (212) 
76

>  <inspiration_ids>  (212) 
[52, 76]

>  <energy_score>  (212) 
1076.6819178371788

>  <distance_score>  (212) 
14.396059320266817

>  <path>  (212) 
/opt/xchem-fragalysis-2/maxwin/BulkDock/SCRATCH/511025/C57418-P76/C57418-P76.minimised.mol

>  <scratch_subdir>  (212) 
/opt/xchem-fragalysis-2/maxwin/BulkDock/SCRATCH/511025/C57418-P76

>  <fragmenstein_runtime>  (212) 
12.295303583145142

>  <fragmenstein_outcome>  (212) 
too moved

>  <fragmenstein_mode>  (212) 
expansion

>  <fragmenstein_error>  (212) 


$$$$
C57421-P52
     RDKit          3D

 31 32  0  0  0  0  0  0  0  0999 V2000
    6.3607  -11.4347   25.4628 C   0  0  0  0  0  0  0  0  0  0  0  0
    5.3423  -11.5719   26.5256 N   0  0  0  0  0  0  0  0  0  0  0  0
    4.9618  -13.0093   26.8543 C   0  0  0  0  0  0  0  0  0  0  0  0
    3.6033  -13.1954   27.6698 C   0  0  0  0  0  0  0  0  0  0  0  0
    3.0592  -15.0433   27.8719 S   0  0  0  0  0  0  0  0  0  0  0  0
    1.4189  -15.3953   28.4980 C   0  0  0  0  0  0  0  0  0  0  0  0
    0.5973  -14.7516   29.3058 N   0  0  0  0  0  0  0  0  0  0  0  0
   -0.4750  -15.6310   29.5645 C   0  0  0  0  0  0  0  0  0  0  0  0
   -1.6237  -15.4967   30.3775 C   0  0  0  0  0  0  0  0  0  0  0  0
   -2.5434  -16.5616   30.4788 C   0  0  0  0  0  0  0  0  0  0  0  0
   -2.3373  -17.7487   29.7761 C   0  0  0  0  0  0  0  0  0  0  0  0
   -1.2086  -17.9068   28.9593 C   0  0  0  0  0  0  0  0  0  0  0  0
   -0.3027  -16.8306   28.8838 C   0  0  0  0  0  0  0  0  0  0  0  0
    0.8925  -16.6510   28.2188 N   0  0  0  0  0  0  0  0  0  0  0  0
    6.1363  -13.6255   27.7018 C   0  0  0  0  0  0  0  0  0  0  0  0
    6.3421  -15.0269   27.3863 N   0  0  0  0  0  0  0  0  0  0  0  0
    6.7220  -12.9002   28.4607 O   0  0  0  0  0  0  0  0  0  0  0  0
    6.5689  -10.3735   25.2986 H   0  0  0  0  0  0  0  0  0  0  0  0
    7.2955  -11.9297   25.7415 H   0  0  0  0  0  0  0  0  0  0  0  0
    5.9944  -11.8591   24.5233 H   0  0  0  0  0  0  0  0  0  0  0  0
    5.7534  -11.1906   27.3882 H   0  0  0  0  0  0  0  0  0  0  0  0
    4.8549  -13.5329   25.8973 H   0  0  0  0  0  0  0  0  0  0  0  0
    3.7050  -12.7898   28.6814 H   0  0  0  0  0  0  0  0  0  0  0  0
    2.8023  -12.6690   27.1586 H   0  0  0  0  0  0  0  0  0  0  0  0
   -1.7861  -14.5712   30.9205 H   0  0  0  0  0  0  0  0  0  0  0  0
   -3.4247  -16.4470   31.1050 H   0  0  0  0  0  0  0  0  0  0  0  0
   -3.0625  -18.5553   29.8543 H   0  0  0  0  0  0  0  0  0  0  0  0
   -1.0459  -18.8268   28.4081 H   0  0  0  0  0  0  0  0  0  0  0  0
    1.3578  -17.3428   27.6550 H   0  0  0  0  0  0  0  0  0  0  0  0
    5.7226  -15.2905   26.5986 H   0  0  0  0  0  0  0  0  0  0  0  0
    5.5722  -15.3519   26.7724 H   0  0  0  0  0  0  0  0  0  0  0  0
  1  2  1  0
  2  3  1  0
  3  4  1  0
  4  5  1  0
  5  6  1  0
  6  7  2  0
  7  8  1  0
  8  9  2  0
  9 10  1  0
 10 11  2  0
 11 12  1  0
 12 13  2  0
 13 14  1  0
  3 15  1  0
 15 16  1  0
 15 17  2  0
 14  6  1  0
 13  8  1  0
  1 18  1  0
  1 19  1  0
  1 20  1  0
  2 21  1  0
  3 22  1  0
  4 23  1  0
  4 24  1  0
  9 25  1  0
 10 26  1  0
 11 27  1  0
 12 28  1  0
 14 29  1  0
 16 30  1  0
 16 31  1  0
M  END
>  <Energy>  (213) 
228.95730975939313

>  <compound_id>  (213) 
57421

>  <target_id>  (213) 
1

>  <reference_id>  (213) 
52

>  <inspiration_ids>  (213) 
[52, 76]

>  <energy_score>  (213) 
146.45661225967478

>  <distance_score>  (213) 
16.767479670939405

>  <path>  (213) 
/opt/xchem-fragalysis-2/maxwin/BulkDock/SCRATCH/511025/C57421-P52/C57421-P52.minimised.mol

>  <scratch_subdir>  (213) 
/opt/xchem-fragalysis-2/maxwin/BulkDock/SCRATCH/511025/C57421-P52

>  <fragmenstein_runtime>  (213) 
16.6397066116333

>  <fragmenstein_outcome>  (213) 
too moved

>  <fragmenstein_mode>  (213) 
expansion

>  <fragmenstein_error>  (213) 


$$$$
C57421-P76
     RDKit          3D

 31 32  0  0  0  0  0  0  0  0999 V2000
    6.8864   -4.6910   18.7679 C   0  0  0  0  0  0  0  0  0  0  0  0
    5.4341   -4.7555   18.9325 N   0  0  0  0  0  0  0  0  0  0  0  0
    5.0202   -5.3747   20.2381 C   0  0  0  0  0  0  0  0  0  0  0  0
    3.5038   -5.7543   20.2527 C   0  0  0  0  0  0  0  0  0  0  0  0
    3.2218   -7.2534   21.3387 S   0  0  0  0  0  0  0  0  0  0  0  0
    1.4955   -7.5091   21.4780 C   0  0  0  0  0  0  0  0  0  0  0  0
    0.6036   -6.7065   22.0061 N   0  0  0  0  0  0  0  0  0  0  0  0
   -0.5789   -7.4142   21.9410 C   0  0  0  0  0  0  0  0  0  0  0  0
   -1.8698   -6.9932   22.2032 C   0  0  0  0  0  0  0  0  0  0  0  0
   -2.8993   -7.8999   21.9642 C   0  0  0  0  0  0  0  0  0  0  0  0
   -2.6757   -9.2259   21.6162 C   0  0  0  0  0  0  0  0  0  0  0  0
   -1.3981   -9.6544   21.3503 C   0  0  0  0  0  0  0  0  0  0  0  0
   -0.3885   -8.7041   21.4784 C   0  0  0  0  0  0  0  0  0  0  0  0
    0.9465   -8.7237   21.1717 N   0  0  0  0  0  0  0  0  0  0  0  0
    5.3377   -4.4039   21.4599 C   0  0  0  0  0  0  0  0  0  0  0  0
    5.1429   -5.1078   22.7239 N   0  0  0  0  0  0  0  0  0  0  0  0
    5.7280   -3.2893   21.2391 O   0  0  0  0  0  0  0  0  0  0  0  0
    7.0950   -4.2824   17.7756 H   0  0  0  0  0  0  0  0  0  0  0  0
    7.3564   -4.0393   19.5075 H   0  0  0  0  0  0  0  0  0  0  0  0
    7.3396   -5.6858   18.8231 H   0  0  0  0  0  0  0  0  0  0  0  0
    5.0479   -5.3090   18.1687 H   0  0  0  0  0  0  0  0  0  0  0  0
    5.6276   -6.2813   20.3623 H   0  0  0  0  0  0  0  0  0  0  0  0
    3.1604   -6.0356   19.2521 H   0  0  0  0  0  0  0  0  0  0  0  0
    2.8865   -4.9275   20.6184 H   0  0  0  0  0  0  0  0  0  0  0  0
   -2.0736   -5.9836   22.5356 H   0  0  0  0  0  0  0  0  0  0  0  0
   -3.9005   -7.5226   22.1349 H   0  0  0  0  0  0  0  0  0  0  0  0
   -3.4941   -9.9267   21.5171 H   0  0  0  0  0  0  0  0  0  0  0  0
   -1.2232  -10.6551   20.9950 H   0  0  0  0  0  0  0  0  0  0  0  0
    1.4603   -9.5362   20.8568 H   0  0  0  0  0  0  0  0  0  0  0  0
    4.9037   -6.1001   22.5265 H   0  0  0  0  0  0  0  0  0  0  0  0
    4.6794   -6.0202   22.5367 H   0  0  0  0  0  0  0  0  0  0  0  0
  1  2  1  0
  2  3  1  0
  3  4  1  0
  4  5  1  0
  5  6  1  0
  6  7  2  0
  7  8  1  0
  8  9  2  0
  9 10  1  0
 10 11  2  0
 11 12  1  0
 12 13  2  0
 13 14  1  0
  3 15  1  0
 15 16  1  0
 15 17  2  0
 14  6  1  0
 13  8  1  0
  1 18  1  0
  1 19  1  0
  1 20  1  0
  2 21  1  0
  3 22  1  0
  4 23  1  0
  4 24  1  0
  9 25  1  0
 10 26  1  0
 11 27  1  0
 12 28  1  0
 14 29  1  0
 16 30  1  0
 16 31  1  0
M  END
>  <Energy>  (214) 
220.7051520222083

>  <compound_id>  (214) 
57421

>  <target_id>  (214) 
1

>  <reference_id>  (214) 
76

>  <inspiration_ids>  (214) 
[52, 76]

>  <energy_score>  (214) 
138.20445452249396

>  <distance_score>  (214) 
17.575080372985255

>  <path>  (214) 
/opt/xchem-fragalysis-2/maxwin/BulkDock/SCRATCH/511025/C57421-P76/C57421-P76.minimised.mol

>  <scratch_subdir>  (214) 
/opt/xchem-fragalysis-2/maxwin/BulkDock/SCRATCH/511025/C57421-P76

>  <fragmenstein_runtime>  (214) 
10.380339622497559

>  <fragmenstein_outcome>  (214) 
too moved

>  <fragmenstein_mode>  (214) 
expansion

>  <fragmenstein_error>  (214) 


$$$$
C57426-P52
     RDKit          3D

 32 33  0  0  0  0  0  0  0  0999 V2000
    1.7418   -7.0016   17.3895 C   0  0  0  0  0  0  0  0  0  0  0  0
    1.5693   -6.4737   18.7443 N   0  0  0  0  0  0  0  0  0  0  0  0
    2.3575   -5.1692   19.0528 C   0  0  0  0  0  0  0  0  0  0  0  0
    3.9092   -4.9960   18.5184 C   0  0  0  0  0  0  0  0  0  0  0  0
    4.8390   -4.4691   19.5671 N   0  0  0  0  0  0  0  0  0  0  0  0
    4.0875   -4.0171   17.3005 C   0  0  0  0  0  0  0  0  0  0  0  0
    5.4712   -3.6763   17.0531 O   0  0  0  0  0  0  0  0  0  0  0  0
    0.3270   -6.9159   19.3766 C   0  0  0  0  0  0  0  0  0  0  0  0
   -0.2760   -6.2456   20.4540 C   0  0  0  0  0  0  0  0  0  0  0  0
   -1.5603   -6.5834   20.9931 C   0  0  0  0  0  0  0  0  0  0  0  0
   -2.2638   -7.6699   20.4520 C   0  0  0  0  0  0  0  0  0  0  0  0
   -3.5198   -8.2001   20.6593 N   0  0  0  0  0  0  0  0  0  0  0  0
   -3.6790   -9.2421   19.7866 C   0  0  0  0  0  0  0  0  0  0  0  0
   -2.5694   -9.4922   19.1252 N   0  0  0  0  0  0  0  0  0  0  0  0
   -1.6989   -8.4656   19.4690 C   0  0  0  0  0  0  0  0  0  0  0  0
   -0.4230   -8.0730   18.9444 C   0  0  0  0  0  0  0  0  0  0  0  0
    2.5848   -6.5384   16.8717 H   0  0  0  0  0  0  0  0  0  0  0  0
    0.8584   -6.8059   16.7706 H   0  0  0  0  0  0  0  0  0  0  0  0
    1.9525   -8.0749   17.4059 H   0  0  0  0  0  0  0  0  0  0  0  0
    1.7617   -4.3245   18.6889 H   0  0  0  0  0  0  0  0  0  0  0  0
    2.3984   -5.1014   20.1462 H   0  0  0  0  0  0  0  0  0  0  0  0
    4.2997   -5.9824   18.2459 H   0  0  0  0  0  0  0  0  0  0  0  0
    4.4710   -3.5821   19.9097 H   0  0  0  0  0  0  0  0  0  0  0  0
    5.7121   -4.2152   19.0939 H   0  0  0  0  0  0  0  0  0  0  0  0
    3.5622   -3.0767   17.4984 H   0  0  0  0  0  0  0  0  0  0  0  0
    3.6721   -4.4546   16.3878 H   0  0  0  0  0  0  0  0  0  0  0  0
    5.9169   -4.4978   16.7741 H   0  0  0  0  0  0  0  0  0  0  0  0
    0.2300   -5.3868   20.8868 H   0  0  0  0  0  0  0  0  0  0  0  0
   -1.9736   -5.9761   21.7886 H   0  0  0  0  0  0  0  0  0  0  0  0
   -4.2055   -7.8745   21.3373 H   0  0  0  0  0  0  0  0  0  0  0  0
   -4.6132   -9.7773   19.6943 H   0  0  0  0  0  0  0  0  0  0  0  0
   -0.0459   -8.6884   18.1395 H   0  0  0  0  0  0  0  0  0  0  0  0
  1  2  1  0
  2  3  1  0
  3  4  1  0
  4  5  1  0
  4  6  1  0
  6  7  1  0
  2  8  1  0
  8  9  2  0
  9 10  1  0
 10 11  2  0
 11 12  1  0
 12 13  1  0
 13 14  2  0
 14 15  1  0
 15 16  2  0
 16  8  1  0
 15 11  1  0
  1 17  1  0
  1 18  1  0
  1 19  1  0
  3 20  1  0
  3 21  1  0
  4 22  1  0
  5 23  1  0
  5 24  1  0
  6 25  1  0
  6 26  1  0
  7 27  1  0
  9 28  1  0
 10 29  1  0
 12 30  1  0
 13 31  1  0
 16 32  1  0
M  END
>  <Energy>  (215) 
82.156042285329747

>  <compound_id>  (215) 
57426

>  <target_id>  (215) 
1

>  <reference_id>  (215) 
52

>  <inspiration_ids>  (215) 
[52, 76]

>  <energy_score>  (215) 
-29.224476947935273

>  <distance_score>  (215) 
18.515196678320574

>  <path>  (215) 
/opt/xchem-fragalysis-2/maxwin/BulkDock/SCRATCH/511025/C57426-P52/C57426-P52.minimised.mol

>  <scratch_subdir>  (215) 
/opt/xchem-fragalysis-2/maxwin/BulkDock/SCRATCH/511025/C57426-P52

>  <fragmenstein_runtime>  (215) 
10.348571300506592

>  <fragmenstein_outcome>  (215) 
too moved

>  <fragmenstein_mode>  (215) 
expansion

>  <fragmenstein_error>  (215) 


$$$$
C57426-P76
     RDKit          3D

 32 33  0  0  0  0  0  0  0  0999 V2000
    8.8512  -11.1800   25.0133 C   0  0  0  0  0  0  0  0  0  0  0  0
    7.5345  -11.1705   24.3560 N   0  0  0  0  0  0  0  0  0  0  0  0
    7.5880  -10.5583   22.8896 C   0  0  0  0  0  0  0  0  0  0  0  0
    8.4970   -9.1934   22.6106 C   0  0  0  0  0  0  0  0  0  0  0  0
    9.9554   -9.4217   22.3876 N   0  0  0  0  0  0  0  0  0  0  0  0
    8.0372   -8.3591   21.3549 C   0  0  0  0  0  0  0  0  0  0  0  0
    8.9806   -7.3281   20.9898 O   0  0  0  0  0  0  0  0  0  0  0  0
    6.7505  -12.3357   24.7906 C   0  0  0  0  0  0  0  0  0  0  0  0
    6.1019  -13.2457   23.9376 C   0  0  0  0  0  0  0  0  0  0  0  0
    5.4172  -14.4298   24.3944 C   0  0  0  0  0  0  0  0  0  0  0  0
    5.3442  -14.6811   25.7729 C   0  0  0  0  0  0  0  0  0  0  0  0
    4.8474  -15.7040   26.5496 N   0  0  0  0  0  0  0  0  0  0  0  0
    4.8761  -15.3058   27.8556 C   0  0  0  0  0  0  0  0  0  0  0  0
    5.5150  -14.1639   27.9821 N   0  0  0  0  0  0  0  0  0  0  0  0
    5.8532  -13.7777   26.6914 C   0  0  0  0  0  0  0  0  0  0  0  0
    6.5661  -12.6353   26.1923 C   0  0  0  0  0  0  0  0  0  0  0  0
    9.2757  -10.1722   25.0218 H   0  0  0  0  0  0  0  0  0  0  0  0
    8.8316  -11.4857   26.0630 H   0  0  0  0  0  0  0  0  0  0  0  0
    9.5362  -11.8477   24.4791 H   0  0  0  0  0  0  0  0  0  0  0  0
    6.5502  -10.3187   22.6316 H   0  0  0  0  0  0  0  0  0  0  0  0
    7.9394  -11.3484   22.2161 H   0  0  0  0  0  0  0  0  0  0  0  0
    8.3978   -8.5574   23.4986 H   0  0  0  0  0  0  0  0  0  0  0  0
   10.4472   -8.5735   22.6792 H   0  0  0  0  0  0  0  0  0  0  0  0
   10.2804  -10.1534   23.0166 H   0  0  0  0  0  0  0  0  0  0  0  0
    7.9143   -9.0162   20.4869 H   0  0  0  0  0  0  0  0  0  0  0  0
    7.0760   -7.8784   21.5614 H   0  0  0  0  0  0  0  0  0  0  0  0
    9.8111   -7.8197   20.8396 H   0  0  0  0  0  0  0  0  0  0  0  0
    6.1495  -13.0834   22.8624 H   0  0  0  0  0  0  0  0  0  0  0  0
    4.9851  -15.1107   23.6685 H   0  0  0  0  0  0  0  0  0  0  0  0
    4.4651  -16.5733   26.2125 H   0  0  0  0  0  0  0  0  0  0  0  0
    4.4546  -15.8942   28.6589 H   0  0  0  0  0  0  0  0  0  0  0  0
    6.9360  -11.9431   26.9423 H   0  0  0  0  0  0  0  0  0  0  0  0
  1  2  1  0
  2  3  1  0
  3  4  1  0
  4  5  1  0
  4  6  1  0
  6  7  1  0
  2  8  1  0
  8  9  2  0
  9 10  1  0
 10 11  2  0
 11 12  1  0
 12 13  1  0
 13 14  2  0
 14 15  1  0
 15 16  2  0
 16  8  1  0
 15 11  1  0
  1 17  1  0
  1 18  1  0
  1 19  1  0
  3 20  1  0
  3 21  1  0
  4 22  1  0
  5 23  1  0
  5 24  1  0
  6 25  1  0
  6 26  1  0
  7 27  1  0
  9 28  1  0
 10 29  1  0
 12 30  1  0
 13 31  1  0
 16 32  1  0
M  END
>  <Energy>  (216) 
81.767350135219388

>  <compound_id>  (216) 
57426

>  <target_id>  (216) 
1

>  <reference_id>  (216) 
76

>  <inspiration_ids>  (216) 
[52, 76]

>  <energy_score>  (216) 
-29.613169098043784

>  <distance_score>  (216) 
18.022652517277294

>  <path>  (216) 
/opt/xchem-fragalysis-2/maxwin/BulkDock/SCRATCH/511025/C57426-P76/C57426-P76.minimised.mol

>  <scratch_subdir>  (216) 
/opt/xchem-fragalysis-2/maxwin/BulkDock/SCRATCH/511025/C57426-P76

>  <fragmenstein_runtime>  (216) 
6.846396207809448

>  <fragmenstein_outcome>  (216) 
too moved

>  <fragmenstein_mode>  (216) 
expansion

>  <fragmenstein_error>  (216) 


$$$$
C57435-P52
     RDKit          3D

 36 37  0  0  0  0  0  0  0  0999 V2000
    4.7047   -1.6938   23.7176 C   0  0  0  0  0  0  0  0  0  0  0  0
    4.2983   -2.7656   22.7168 C   0  0  0  0  0  0  0  0  0  0  0  0
    4.9178   -4.1588   22.9688 C   0  0  0  0  0  0  0  0  0  0  0  0
    6.4783   -4.0855   22.7769 C   0  0  0  0  0  0  0  0  0  0  0  0
    6.8691   -3.4493   21.5497 O   0  0  0  0  0  0  0  0  0  0  0  0
    4.4626   -4.8587   24.3762 C   0  0  0  0  0  0  0  0  0  0  0  0
    2.9715   -5.2383   24.6807 N   0  0  0  0  0  0  0  0  0  0  0  0
    2.7616   -5.9820   26.0256 C   0  0  0  0  0  0  0  0  0  0  0  0
    1.3330   -6.5378   26.5373 C   0  0  0  0  0  0  0  0  0  0  0  0
    0.0978   -6.2385   25.9409 C   0  0  0  0  0  0  0  0  0  0  0  0
   -1.1662   -6.6681   26.4645 C   0  0  0  0  0  0  0  0  0  0  0  0
   -1.1879   -7.3324   27.6939 C   0  0  0  0  0  0  0  0  0  0  0  0
   -2.2031   -7.7639   28.5213 N   0  0  0  0  0  0  0  0  0  0  0  0
   -1.6345   -8.2131   29.6818 C   0  0  0  0  0  0  0  0  0  0  0  0
   -0.3185   -8.1778   29.6126 N   0  0  0  0  0  0  0  0  0  0  0  0
   -0.0137   -7.6319   28.3745 C   0  0  0  0  0  0  0  0  0  0  0  0
    1.2409   -7.2850   27.7657 C   0  0  0  0  0  0  0  0  0  0  0  0
    5.7813   -1.5038   23.6916 H   0  0  0  0  0  0  0  0  0  0  0  0
    4.4241   -1.9695   24.7379 H   0  0  0  0  0  0  0  0  0  0  0  0
    4.1984   -0.7525   23.4791 H   0  0  0  0  0  0  0  0  0  0  0  0
    3.2060   -2.8642   22.7446 H   0  0  0  0  0  0  0  0  0  0  0  0
    4.5437   -2.4224   21.7049 H   0  0  0  0  0  0  0  0  0  0  0  0
    4.5356   -4.8123   22.1723 H   0  0  0  0  0  0  0  0  0  0  0  0
    6.8865   -5.1017   22.7729 H   0  0  0  0  0  0  0  0  0  0  0  0
    6.9371   -3.5395   23.6075 H   0  0  0  0  0  0  0  0  0  0  0  0
    7.8423   -3.4524   21.5329 H   0  0  0  0  0  0  0  0  0  0  0  0
    4.7944   -4.2153   25.1982 H   0  0  0  0  0  0  0  0  0  0  0  0
    5.0259   -5.7970   24.4486 H   0  0  0  0  0  0  0  0  0  0  0  0
    2.6603   -5.8519   23.9317 H   0  0  0  0  0  0  0  0  0  0  0  0
    3.0945   -5.2899   26.8082 H   0  0  0  0  0  0  0  0  0  0  0  0
    3.4310   -6.8490   26.0234 H   0  0  0  0  0  0  0  0  0  0  0  0
    0.0922   -5.6328   25.0327 H   0  0  0  0  0  0  0  0  0  0  0  0
   -2.0839   -6.3941   25.9528 H   0  0  0  0  0  0  0  0  0  0  0  0
   -3.1922   -7.7003   28.3357 H   0  0  0  0  0  0  0  0  0  0  0  0
   -2.2168   -8.5751   30.5179 H   0  0  0  0  0  0  0  0  0  0  0  0
    2.1445   -7.5161   28.3262 H   0  0  0  0  0  0  0  0  0  0  0  0
  1  2  1  0
  2  3  1  0
  3  4  1  0
  4  5  1  0
  3  6  1  0
  6  7  1  0
  7  8  1  0
  8  9  1  0
  9 10  2  0
 10 11  1  0
 11 12  2  0
 12 13  1  0
 13 14  1  0
 14 15  2  0
 15 16  1  0
 16 17  2  0
 17  9  1  0
 16 12  1  0
  1 18  1  0
  1 19  1  0
  1 20  1  0
  2 21  1  0
  2 22  1  0
  3 23  1  0
  4 24  1  0
  4 25  1  0
  5 26  1  0
  6 27  1  0
  6 28  1  0
  7 29  1  0
  8 30  1  0
  8 31  1  0
 10 32  1  0
 11 33  1  0
 13 34  1  0
 14 35  1  0
 17 36  1  0
M  END
>  <Energy>  (217) 
39.653114262271544

>  <compound_id>  (217) 
57435

>  <target_id>  (217) 
1

>  <reference_id>  (217) 
52

>  <inspiration_ids>  (217) 
[52, 76]

>  <energy_score>  (217) 
1.4162160385328662

>  <distance_score>  (217) 
17.90459487127909

>  <path>  (217) 
/opt/xchem-fragalysis-2/maxwin/BulkDock/SCRATCH/511025/C57435-P52/C57435-P52.minimised.mol

>  <scratch_subdir>  (217) 
/opt/xchem-fragalysis-2/maxwin/BulkDock/SCRATCH/511025/C57435-P52

>  <fragmenstein_runtime>  (217) 
8.7621328830719

>  <fragmenstein_outcome>  (217) 
too moved

>  <fragmenstein_mode>  (217) 
expansion

>  <fragmenstein_error>  (217) 


$$$$
C57435-P76
     RDKit          3D

 36 37  0  0  0  0  0  0  0  0999 V2000
    5.3275   -9.7233   23.0082 C   0  0  0  0  0  0  0  0  0  0  0  0
    3.8643  -10.2252   22.5849 C   0  0  0  0  0  0  0  0  0  0  0  0
    2.5818  -11.6591   23.2334 C   0  0  0  0  0  0  0  0  0  0  0  0
    3.2880  -12.7018   22.6521 C   0  0  0  0  0  0  0  0  0  0  0  0
    4.0145  -12.5808   21.3806 O   0  0  0  0  0  0  0  0  0  0  0  0
    1.9944  -12.7448   24.6853 C   0  0  0  0  0  0  0  0  0  0  0  0
    1.0629  -13.1705   26.2006 N   0  0  0  0  0  0  0  0  0  0  0  0
    1.2082  -12.9217   27.6652 C   0  0  0  0  0  0  0  0  0  0  0  0
   -0.0059  -13.2712   28.6211 C   0  0  0  0  0  0  0  0  0  0  0  0
   -1.1714  -12.4915   28.5714 C   0  0  0  0  0  0  0  0  0  0  0  0
   -2.2014  -12.5789   29.5358 C   0  0  0  0  0  0  0  0  0  0  0  0
   -2.0922  -13.5389   30.5332 C   0  0  0  0  0  0  0  0  0  0  0  0
   -2.9531  -13.9657   31.5148 N   0  0  0  0  0  0  0  0  0  0  0  0
   -2.2874  -14.8827   32.2731 C   0  0  0  0  0  0  0  0  0  0  0  0
   -1.0651  -15.0788   31.8214 N   0  0  0  0  0  0  0  0  0  0  0  0
   -0.9490  -14.3077   30.6781 C   0  0  0  0  0  0  0  0  0  0  0  0
    0.0971  -14.1852   29.7109 C   0  0  0  0  0  0  0  0  0  0  0  0
    5.3538   -8.8677   23.6846 H   0  0  0  0  0  0  0  0  0  0  0  0
    5.8373   -9.3490   22.1072 H   0  0  0  0  0  0  0  0  0  0  0  0
    5.9763  -10.5039   23.4117 H   0  0  0  0  0  0  0  0  0  0  0  0
    4.3464  -10.6001   21.7029 H   0  0  0  0  0  0  0  0  0  0  0  0
    3.2976   -9.3422   22.2559 H   0  0  0  0  0  0  0  0  0  0  0  0
    2.5398  -11.2060   24.1025 H   0  0  0  0  0  0  0  0  0  0  0  0
    3.8459  -12.5575   23.5363 H   0  0  0  0  0  0  0  0  0  0  0  0
    2.9917  -13.7617   22.9189 H   0  0  0  0  0  0  0  0  0  0  0  0
    3.8391  -13.4114   20.8856 H   0  0  0  0  0  0  0  0  0  0  0  0
    2.9170  -13.3070   24.8812 H   0  0  0  0  0  0  0  0  0  0  0  0
    1.6113  -11.8480   25.1489 H   0  0  0  0  0  0  0  0  0  0  0  0
    0.1396  -12.8368   25.9367 H   0  0  0  0  0  0  0  0  0  0  0  0
    2.0655  -13.4869   28.0479 H   0  0  0  0  0  0  0  0  0  0  0  0
    1.3497  -11.8529   27.8635 H   0  0  0  0  0  0  0  0  0  0  0  0
   -1.2812  -11.7556   27.7775 H   0  0  0  0  0  0  0  0  0  0  0  0
   -3.0913  -11.9715   29.4378 H   0  0  0  0  0  0  0  0  0  0  0  0
   -3.8980  -13.6415   31.6603 H   0  0  0  0  0  0  0  0  0  0  0  0
   -2.7305  -15.3651   33.1341 H   0  0  0  0  0  0  0  0  0  0  0  0
    0.9951  -14.7821   29.8431 H   0  0  0  0  0  0  0  0  0  0  0  0
  1  2  1  0
  2  3  1  0
  3  4  1  0
  4  5  1  0
  3  6  1  0
  6  7  1  0
  7  8  1  0
  8  9  1  0
  9 10  2  0
 10 11  1  0
 11 12  2  0
 12 13  1  0
 13 14  1  0
 14 15  2  0
 15 16  1  0
 16 17  2  0
 17  9  1  0
 16 12  1  0
  1 18  1  0
  1 19  1  0
  1 20  1  0
  2 21  1  0
  2 22  1  0
  3 23  1  0
  4 24  1  0
  4 25  1  0
  5 26  1  0
  6 27  1  0
  6 28  1  0
  7 29  1  0
  8 30  1  0
  8 31  1  0
 10 32  1  0
 11 33  1  0
 13 34  1  0
 14 35  1  0
 17 36  1  0
M  END
>  <Energy>  (218) 
397.82802813004429

>  <compound_id>  (218) 
57435

>  <target_id>  (218) 
1

>  <reference_id>  (218) 
76

>  <inspiration_ids>  (218) 
[52, 76]

>  <energy_score>  (218) 
359.59112990630337

>  <distance_score>  (218) 
16.406626596458537

>  <path>  (218) 
/opt/xchem-fragalysis-2/maxwin/BulkDock/SCRATCH/511025/C57435-P76/C57435-P76.minimised.mol

>  <scratch_subdir>  (218) 
/opt/xchem-fragalysis-2/maxwin/BulkDock/SCRATCH/511025/C57435-P76

>  <fragmenstein_runtime>  (218) 
6.447551488876343

>  <fragmenstein_outcome>  (218) 
too moved

>  <fragmenstein_mode>  (218) 
expansion

>  <fragmenstein_error>  (218) 


$$$$
C57449-P52
     RDKit          3D

 37 38  0  0  0  0  0  0  0  0999 V2000
    6.8553   -2.9693   19.3678 C   0  0  0  0  0  0  0  0  0  0  0  0
    5.3403   -3.1251   19.5742 C   0  0  0  0  0  0  0  0  0  0  0  0
    5.0155   -3.6487   20.9724 C   0  0  0  0  0  0  0  0  0  0  0  0
    4.5813   -3.7736   18.4869 N   0  0  0  0  0  0  0  0  0  0  0  0
    4.4258   -5.2552   18.3890 C   0  0  0  0  0  0  0  0  0  0  0  0
    5.8023   -5.9814   18.5160 C   0  0  0  0  0  0  0  0  0  0  0  0
    6.8233   -5.3727   17.7230 O   0  0  0  0  0  0  0  0  0  0  0  0
    3.2564   -6.0512   19.2430 C   0  0  0  0  0  0  0  0  0  0  0  0
    1.3911   -5.8803   18.8038 S   0  0  0  0  0  0  0  0  0  0  0  0
    0.2656   -7.1638   19.4920 C   0  0  0  0  0  0  0  0  0  0  0  0
   -0.0510   -8.3400   18.9592 N   0  0  0  0  0  0  0  0  0  0  0  0
   -1.3392   -8.6609   19.4134 C   0  0  0  0  0  0  0  0  0  0  0  0
   -2.2147   -9.7081   19.0473 C   0  0  0  0  0  0  0  0  0  0  0  0
   -3.5400   -9.7060   19.5061 C   0  0  0  0  0  0  0  0  0  0  0  0
   -3.9926   -8.7054   20.3671 C   0  0  0  0  0  0  0  0  0  0  0  0
   -3.1320   -7.6806   20.7845 C   0  0  0  0  0  0  0  0  0  0  0  0
   -1.8183   -7.6785   20.2682 C   0  0  0  0  0  0  0  0  0  0  0  0
   -0.7640   -6.7759   20.3476 N   0  0  0  0  0  0  0  0  0  0  0  0
    7.0677   -2.6044   18.3636 H   0  0  0  0  0  0  0  0  0  0  0  0
    7.4034   -3.8956   19.5502 H   0  0  0  0  0  0  0  0  0  0  0  0
    7.2511   -2.2251   20.0688 H   0  0  0  0  0  0  0  0  0  0  0  0
    4.9600   -2.0941   19.5607 H   0  0  0  0  0  0  0  0  0  0  0  0
    5.3877   -4.6627   21.1372 H   0  0  0  0  0  0  0  0  0  0  0  0
    3.9349   -3.6417   21.1512 H   0  0  0  0  0  0  0  0  0  0  0  0
    5.4706   -3.0062   21.7347 H   0  0  0  0  0  0  0  0  0  0  0  0
    4.9795   -3.4607   17.6007 H   0  0  0  0  0  0  0  0  0  0  0  0
    4.1174   -5.4100   17.3449 H   0  0  0  0  0  0  0  0  0  0  0  0
    6.1384   -6.0049   19.5561 H   0  0  0  0  0  0  0  0  0  0  0  0
    5.6994   -7.0177   18.1762 H   0  0  0  0  0  0  0  0  0  0  0  0
    7.6532   -5.8161   17.9829 H   0  0  0  0  0  0  0  0  0  0  0  0
    3.4572   -7.1237   19.1414 H   0  0  0  0  0  0  0  0  0  0  0  0
    3.3502   -5.8020   20.3031 H   0  0  0  0  0  0  0  0  0  0  0  0
   -1.8812  -10.4515   18.3317 H   0  0  0  0  0  0  0  0  0  0  0  0
   -4.2269  -10.4754   19.1610 H   0  0  0  0  0  0  0  0  0  0  0  0
   -5.0282   -8.7178   20.7034 H   0  0  0  0  0  0  0  0  0  0  0  0
   -3.4890   -6.8792   21.4235 H   0  0  0  0  0  0  0  0  0  0  0  0
   -0.8067   -5.8686   20.7792 H   0  0  0  0  0  0  0  0  0  0  0  0
  1  2  1  0
  2  3  1  0
  2  4  1  0
  4  5  1  0
  5  6  1  0
  6  7  1  0
  5  8  1  0
  8  9  1  0
  9 10  1  0
 10 11  2  0
 11 12  1  0
 12 13  2  0
 13 14  1  0
 14 15  2  0
 15 16  1  0
 16 17  2  0
 17 18  1  0
 18 10  1  0
 17 12  1  0
  1 19  1  0
  1 20  1  0
  1 21  1  0
  2 22  1  0
  3 23  1  0
  3 24  1  0
  3 25  1  0
  4 26  1  0
  5 27  1  0
  6 28  1  0
  6 29  1  0
  7 30  1  0
  8 31  1  0
  8 32  1  0
 13 33  1  0
 14 34  1  0
 15 35  1  0
 16 36  1  0
 18 37  1  0
M  END
>  <Energy>  (219) 
74.508609515658435

>  <compound_id>  (219) 
57449

>  <target_id>  (219) 
1

>  <reference_id>  (219) 
52

>  <inspiration_ids>  (219) 
[52, 76]

>  <energy_score>  (219) 
-19.346998815944175

>  <distance_score>  (219) 
17.074931264875726

>  <path>  (219) 
/opt/xchem-fragalysis-2/maxwin/BulkDock/SCRATCH/511025/C57449-P52/C57449-P52.minimised.mol

>  <scratch_subdir>  (219) 
/opt/xchem-fragalysis-2/maxwin/BulkDock/SCRATCH/511025/C57449-P52

>  <fragmenstein_runtime>  (219) 
11.582438707351685

>  <fragmenstein_outcome>  (219) 
too moved

>  <fragmenstein_mode>  (219) 
expansion

>  <fragmenstein_error>  (219) 


$$$$
C57449-P76
     RDKit          3D

 37 38  0  0  0  0  0  0  0  0999 V2000
   12.3323   -6.2559   20.5165 C   0  0  0  0  0  0  0  0  0  0  0  0
   10.9907   -6.7265   21.1101 C   0  0  0  0  0  0  0  0  0  0  0  0
   11.1734   -7.0790   22.5862 C   0  0  0  0  0  0  0  0  0  0  0  0
   10.5149   -7.9243   20.3938 N   0  0  0  0  0  0  0  0  0  0  0  0
    9.0515   -8.0435   20.0990 C   0  0  0  0  0  0  0  0  0  0  0  0
    8.5259   -6.7532   19.3956 C   0  0  0  0  0  0  0  0  0  0  0  0
    9.4459   -6.2841   18.4018 O   0  0  0  0  0  0  0  0  0  0  0  0
    8.0155   -8.6225   21.2232 C   0  0  0  0  0  0  0  0  0  0  0  0
    8.1172  -10.4945   21.6586 S   0  0  0  0  0  0  0  0  0  0  0  0
    6.7009  -11.2532   22.5455 C   0  0  0  0  0  0  0  0  0  0  0  0
    5.7722  -12.0399   22.0075 N   0  0  0  0  0  0  0  0  0  0  0  0
    5.5010  -13.0456   22.9472 C   0  0  0  0  0  0  0  0  0  0  0  0
    4.8151  -14.2678   22.8213 C   0  0  0  0  0  0  0  0  0  0  0  0
    4.9073  -15.2113   23.8627 C   0  0  0  0  0  0  0  0  0  0  0  0
    5.4880  -14.8909   25.0854 C   0  0  0  0  0  0  0  0  0  0  0  0
    6.1225  -13.6575   25.2507 C   0  0  0  0  0  0  0  0  0  0  0  0
    6.1640  -12.7911   24.1391 C   0  0  0  0  0  0  0  0  0  0  0  0
    6.8672  -11.6211   23.8773 N   0  0  0  0  0  0  0  0  0  0  0  0
   13.1087   -7.0196   20.6395 H   0  0  0  0  0  0  0  0  0  0  0  0
   12.6747   -5.3458   21.0208 H   0  0  0  0  0  0  0  0  0  0  0  0
   12.2487   -6.0358   19.4485 H   0  0  0  0  0  0  0  0  0  0  0  0
   10.2867   -5.8937   21.0501 H   0  0  0  0  0  0  0  0  0  0  0  0
   10.2251   -7.3751   23.0455 H   0  0  0  0  0  0  0  0  0  0  0  0
   11.5536   -6.2160   23.1436 H   0  0  0  0  0  0  0  0  0  0  0  0
   11.8851   -7.9018   22.7192 H   0  0  0  0  0  0  0  0  0  0  0  0
   10.9751   -7.9449   19.4772 H   0  0  0  0  0  0  0  0  0  0  0  0
    9.0222   -8.8144   19.3147 H   0  0  0  0  0  0  0  0  0  0  0  0
    7.5846   -6.9774   18.8829 H   0  0  0  0  0  0  0  0  0  0  0  0
    8.3260   -5.9479   20.1098 H   0  0  0  0  0  0  0  0  0  0  0  0
   10.1454   -5.7938   18.8871 H   0  0  0  0  0  0  0  0  0  0  0  0
    8.1323   -8.0609   22.1542 H   0  0  0  0  0  0  0  0  0  0  0  0
    6.9950   -8.4691   20.8566 H   0  0  0  0  0  0  0  0  0  0  0  0
    4.3443  -14.5087   21.8740 H   0  0  0  0  0  0  0  0  0  0  0  0
    4.5481  -16.2226   23.6998 H   0  0  0  0  0  0  0  0  0  0  0  0
    5.5066  -15.6208   25.8902 H   0  0  0  0  0  0  0  0  0  0  0  0
    6.6418  -13.4182   26.1726 H   0  0  0  0  0  0  0  0  0  0  0  0
    7.6033  -11.2582   24.4598 H   0  0  0  0  0  0  0  0  0  0  0  0
  1  2  1  0
  2  3  1  0
  2  4  1  0
  4  5  1  0
  5  6  1  0
  6  7  1  0
  5  8  1  0
  8  9  1  0
  9 10  1  0
 10 11  2  0
 11 12  1  0
 12 13  2  0
 13 14  1  0
 14 15  2  0
 15 16  1  0
 16 17  2  0
 17 18  1  0
 18 10  1  0
 17 12  1  0
  1 19  1  0
  1 20  1  0
  1 21  1  0
  2 22  1  0
  3 23  1  0
  3 24  1  0
  3 25  1  0
  4 26  1  0
  5 27  1  0
  6 28  1  0
  6 29  1  0
  7 30  1  0
  8 31  1  0
  8 32  1  0
 13 33  1  0
 14 34  1  0
 15 35  1  0
 16 36  1  0
 18 37  1  0
M  END
>  <Energy>  (220) 
74.422715440753123

>  <compound_id>  (220) 
57449

>  <target_id>  (220) 
1

>  <reference_id>  (220) 
76

>  <inspiration_ids>  (220) 
[52, 76]

>  <energy_score>  (220) 
-19.432892890851463

>  <distance_score>  (220) 
16.796423129286907

>  <path>  (220) 
/opt/xchem-fragalysis-2/maxwin/BulkDock/SCRATCH/511025/C57449-P76/C57449-P76.minimised.mol

>  <scratch_subdir>  (220) 
/opt/xchem-fragalysis-2/maxwin/BulkDock/SCRATCH/511025/C57449-P76

>  <fragmenstein_runtime>  (220) 
7.428499460220337

>  <fragmenstein_outcome>  (220) 
too moved

>  <fragmenstein_mode>  (220) 
expansion

>  <fragmenstein_error>  (220) 


$$$$
C57450-P52
     RDKit          3D

 37 38  0  0  0  0  0  0  0  0999 V2000
    8.9202   -3.5590   19.8365 C   0  0  0  0  0  0  0  0  0  0  0  0
    9.6369   -4.7840   20.3815 C   0  0  0  0  0  0  0  0  0  0  0  0
    8.6621   -5.7638   20.9180 N   0  0  0  0  0  0  0  0  0  0  0  0
    9.2383   -6.9383   21.6868 C   0  0  0  0  0  0  0  0  0  0  0  0
   10.0135   -6.3883   22.9005 C   0  0  0  0  0  0  0  0  0  0  0  0
   10.2246   -7.7366   20.7609 C   0  0  0  0  0  0  0  0  0  0  0  0
   11.3854   -6.9915   20.3559 O   0  0  0  0  0  0  0  0  0  0  0  0
    7.9626   -7.9529   22.2442 C   0  0  0  0  0  0  0  0  0  0  0  0
    8.1883   -9.3718   23.6315 S   0  0  0  0  0  0  0  0  0  0  0  0
    6.7071  -10.3928   24.1917 C   0  0  0  0  0  0  0  0  0  0  0  0
    6.3086  -11.5690   23.7044 N   0  0  0  0  0  0  0  0  0  0  0  0
    5.7011  -12.2902   24.7590 C   0  0  0  0  0  0  0  0  0  0  0  0
    5.1967  -13.6132   24.8365 C   0  0  0  0  0  0  0  0  0  0  0  0
    4.6989  -14.1256   26.0565 C   0  0  0  0  0  0  0  0  0  0  0  0
    4.6416  -13.3171   27.1865 C   0  0  0  0  0  0  0  0  0  0  0  0
    5.1406  -12.0031   27.1397 C   0  0  0  0  0  0  0  0  0  0  0  0
    5.6873  -11.5289   25.9198 C   0  0  0  0  0  0  0  0  0  0  0  0
    6.3155  -10.3411   25.5363 N   0  0  0  0  0  0  0  0  0  0  0  0
    8.3165   -3.0785   20.6140 H   0  0  0  0  0  0  0  0  0  0  0  0
    8.2572   -3.8256   19.0075 H   0  0  0  0  0  0  0  0  0  0  0  0
    9.6513   -2.8262   19.4836 H   0  0  0  0  0  0  0  0  0  0  0  0
   10.3269   -4.4379   21.1544 H   0  0  0  0  0  0  0  0  0  0  0  0
   10.2113   -5.2112   19.5592 H   0  0  0  0  0  0  0  0  0  0  0  0
    8.1193   -6.1219   20.1321 H   0  0  0  0  0  0  0  0  0  0  0  0
   10.9009   -5.8096   22.6289 H   0  0  0  0  0  0  0  0  0  0  0  0
    9.3691   -5.7555   23.5213 H   0  0  0  0  0  0  0  0  0  0  0  0
   10.3682   -7.2104   23.5315 H   0  0  0  0  0  0  0  0  0  0  0  0
   10.5768   -8.6260   21.2953 H   0  0  0  0  0  0  0  0  0  0  0  0
    9.7068   -8.0714   19.8553 H   0  0  0  0  0  0  0  0  0  0  0  0
   12.0139   -7.6337   19.9824 H   0  0  0  0  0  0  0  0  0  0  0  0
    7.2001   -7.2938   22.6744 H   0  0  0  0  0  0  0  0  0  0  0  0
    7.5338   -8.4587   21.3726 H   0  0  0  0  0  0  0  0  0  0  0  0
    5.2319  -14.2386   23.9497 H   0  0  0  0  0  0  0  0  0  0  0  0
    4.3448  -15.1528   26.0981 H   0  0  0  0  0  0  0  0  0  0  0  0
    4.2433  -13.7125   28.1174 H   0  0  0  0  0  0  0  0  0  0  0  0
    5.1389  -11.3799   28.0285 H   0  0  0  0  0  0  0  0  0  0  0  0
    6.6027   -9.6106   26.1662 H   0  0  0  0  0  0  0  0  0  0  0  0
  1  2  1  0
  2  3  1  0
  3  4  1  0
  4  5  1  0
  4  6  1  0
  6  7  1  0
  4  8  1  0
  8  9  1  0
  9 10  1  0
 10 11  2  0
 11 12  1  0
 12 13  2  0
 13 14  1  0
 14 15  2  0
 15 16  1  0
 16 17  2  0
 17 18  1  0
 18 10  1  0
 17 12  1  0
  1 19  1  0
  1 20  1  0
  1 21  1  0
  2 22  1  0
  2 23  1  0
  3 24  1  0
  5 25  1  0
  5 26  1  0
  5 27  1  0
  6 28  1  0
  6 29  1  0
  7 30  1  0
  8 31  1  0
  8 32  1  0
 13 33  1  0
 14 34  1  0
 15 35  1  0
 16 36  1  0
 18 37  1  0
M  END
>  <Energy>  (221) 
86.296074790904967

>  <compound_id>  (221) 
57450

>  <target_id>  (221) 
1

>  <reference_id>  (221) 
52

>  <inspiration_ids>  (221) 
[52, 76]

>  <energy_score>  (221) 
7.803983185336961

>  <distance_score>  (221) 
16.901948426320377

>  <path>  (221) 
/opt/xchem-fragalysis-2/maxwin/BulkDock/SCRATCH/511025/C57450-P52/C57450-P52.minimised.mol

>  <scratch_subdir>  (221) 
/opt/xchem-fragalysis-2/maxwin/BulkDock/SCRATCH/511025/C57450-P52

>  <fragmenstein_runtime>  (221) 
9.867635488510132

>  <fragmenstein_outcome>  (221) 
too moved

>  <fragmenstein_mode>  (221) 
expansion

>  <fragmenstein_error>  (221) 


$$$$
C57450-P76
     RDKit          3D

 37 38  0  0  0  0  0  0  0  0999 V2000
   12.3598   -6.2421   20.0171 C   0  0  0  0  0  0  0  0  0  0  0  0
   11.1374   -6.9528   19.4454 C   0  0  0  0  0  0  0  0  0  0  0  0
   10.3943   -7.6679   20.4957 N   0  0  0  0  0  0  0  0  0  0  0  0
    8.9075   -7.8347   20.2817 C   0  0  0  0  0  0  0  0  0  0  0  0
    8.2452   -6.5262   20.7645 C   0  0  0  0  0  0  0  0  0  0  0  0
    8.5417   -8.0880   18.7830 C   0  0  0  0  0  0  0  0  0  0  0  0
    8.6016   -6.9285   17.9412 O   0  0  0  0  0  0  0  0  0  0  0  0
    8.4136   -9.1259   21.2304 C   0  0  0  0  0  0  0  0  0  0  0  0
    6.5946   -9.8086   21.2846 S   0  0  0  0  0  0  0  0  0  0  0  0
    6.3250  -11.2877   22.3180 C   0  0  0  0  0  0  0  0  0  0  0  0
    6.5102  -11.4875   23.6160 N   0  0  0  0  0  0  0  0  0  0  0  0
    6.0059  -12.7733   23.9071 C   0  0  0  0  0  0  0  0  0  0  0  0
    5.9930  -13.5298   25.1051 C   0  0  0  0  0  0  0  0  0  0  0  0
    5.5028  -14.8466   25.1013 C   0  0  0  0  0  0  0  0  0  0  0  0
    5.0436  -15.4108   23.9132 C   0  0  0  0  0  0  0  0  0  0  0  0
    4.9579  -14.6530   22.7340 C   0  0  0  0  0  0  0  0  0  0  0  0
    5.4535  -13.3410   22.7689 C   0  0  0  0  0  0  0  0  0  0  0  0
    5.5956  -12.3566   21.8059 N   0  0  0  0  0  0  0  0  0  0  0  0
   12.0828   -5.5758   20.8415 H   0  0  0  0  0  0  0  0  0  0  0  0
   12.8406   -5.6289   19.2501 H   0  0  0  0  0  0  0  0  0  0  0  0
   13.0897   -6.9637   20.3982 H   0  0  0  0  0  0  0  0  0  0  0  0
   11.4500   -7.6708   18.6825 H   0  0  0  0  0  0  0  0  0  0  0  0
   10.5167   -6.2155   18.9557 H   0  0  0  0  0  0  0  0  0  0  0  0
   10.5357   -7.1842   21.3834 H   0  0  0  0  0  0  0  0  0  0  0  0
    7.1590   -6.5754   20.6288 H   0  0  0  0  0  0  0  0  0  0  0  0
    8.4319   -6.3597   21.8317 H   0  0  0  0  0  0  0  0  0  0  0  0
    8.6045   -5.6461   20.2237 H   0  0  0  0  0  0  0  0  0  0  0  0
    9.1921   -8.8606   18.3569 H   0  0  0  0  0  0  0  0  0  0  0  0
    7.5131   -8.4579   18.7186 H   0  0  0  0  0  0  0  0  0  0  0  0
    8.3337   -7.2473   17.0543 H   0  0  0  0  0  0  0  0  0  0  0  0
    9.0182   -9.9912   20.9340 H   0  0  0  0  0  0  0  0  0  0  0  0
    8.6591   -8.8893   22.2723 H   0  0  0  0  0  0  0  0  0  0  0  0
    6.4016  -13.0943   26.0108 H   0  0  0  0  0  0  0  0  0  0  0  0
    5.5301  -15.4330   26.0152 H   0  0  0  0  0  0  0  0  0  0  0  0
    4.7502  -16.4577   23.8958 H   0  0  0  0  0  0  0  0  0  0  0  0
    4.5879  -15.0806   21.8085 H   0  0  0  0  0  0  0  0  0  0  0  0
    5.3021  -12.4322   20.8465 H   0  0  0  0  0  0  0  0  0  0  0  0
  1  2  1  0
  2  3  1  0
  3  4  1  0
  4  5  1  0
  4  6  1  0
  6  7  1  0
  4  8  1  0
  8  9  1  0
  9 10  1  0
 10 11  2  0
 11 12  1  0
 12 13  2  0
 13 14  1  0
 14 15  2  0
 15 16  1  0
 16 17  2  0
 17 18  1  0
 18 10  1  0
 17 12  1  0
  1 19  1  0
  1 20  1  0
  1 21  1  0
  2 22  1  0
  2 23  1  0
  3 24  1  0
  5 25  1  0
  5 26  1  0
  5 27  1  0
  6 28  1  0
  6 29  1  0
  7 30  1  0
  8 31  1  0
  8 32  1  0
 13 33  1  0
 14 34  1  0
 15 35  1  0
 16 36  1  0
 18 37  1  0
M  END
>  <Energy>  (222) 
66.556620903703831

>  <compound_id>  (222) 
57450

>  <target_id>  (222) 
1

>  <reference_id>  (222) 
76

>  <inspiration_ids>  (222) 
[52, 76]

>  <energy_score>  (222) 
-11.935470701864176

>  <distance_score>  (222) 
16.96975080001368

>  <path>  (222) 
/opt/xchem-fragalysis-2/maxwin/BulkDock/SCRATCH/511025/C57450-P76/C57450-P76.minimised.mol

>  <scratch_subdir>  (222) 
/opt/xchem-fragalysis-2/maxwin/BulkDock/SCRATCH/511025/C57450-P76

>  <fragmenstein_runtime>  (222) 
6.2938597202301025

>  <fragmenstein_outcome>  (222) 
too moved

>  <fragmenstein_mode>  (222) 
expansion

>  <fragmenstein_error>  (222) 


$$$$
C57452-P52
     RDKit          3D

 28 29  0  0  0  0  0  0  0  0999 V2000
    5.2737  -12.5440   16.3796 N   0  0  0  0  0  0  0  0  0  0  0  0
    4.8328  -12.3066   17.7684 C   0  0  0  0  0  0  0  0  0  0  0  0
    4.7889  -10.7331   17.9867 C   0  0  0  0  0  0  0  0  0  0  0  0
    6.0054  -10.0458   17.6278 O   0  0  0  0  0  0  0  0  0  0  0  0
    3.4285  -13.1155   18.1797 C   0  0  0  0  0  0  0  0  0  0  0  0
    3.3037  -15.1248   18.0080 S   0  0  0  0  0  0  0  0  0  0  0  0
    1.8431  -16.0581   18.6814 C   0  0  0  0  0  0  0  0  0  0  0  0
    0.5319  -15.8671   18.6301 N   0  0  0  0  0  0  0  0  0  0  0  0
   -0.0915  -16.9590   19.2683 C   0  0  0  0  0  0  0  0  0  0  0  0
   -1.4516  -17.2654   19.5132 C   0  0  0  0  0  0  0  0  0  0  0  0
   -1.8019  -18.4667   20.1673 C   0  0  0  0  0  0  0  0  0  0  0  0
   -0.8189  -19.3357   20.6302 C   0  0  0  0  0  0  0  0  0  0  0  0
    0.5340  -19.0617   20.3812 C   0  0  0  0  0  0  0  0  0  0  0  0
    0.8591  -17.8788   19.6785 C   0  0  0  0  0  0  0  0  0  0  0  0
    2.0579  -17.3224   19.2463 N   0  0  0  0  0  0  0  0  0  0  0  0
    4.6625  -12.0553   15.7289 H   0  0  0  0  0  0  0  0  0  0  0  0
    5.1942  -13.5378   16.1670 H   0  0  0  0  0  0  0  0  0  0  0  0
    5.6191  -12.7074   18.4193 H   0  0  0  0  0  0  0  0  0  0  0  0
    4.5867  -10.5259   19.0426 H   0  0  0  0  0  0  0  0  0  0  0  0
    3.9756  -10.3075   17.3881 H   0  0  0  0  0  0  0  0  0  0  0  0
    5.8246   -9.0946   17.6993 H   0  0  0  0  0  0  0  0  0  0  0  0
    2.6109  -12.7295   17.5637 H   0  0  0  0  0  0  0  0  0  0  0  0
    3.2232  -12.9142   19.2344 H   0  0  0  0  0  0  0  0  0  0  0  0
   -2.2153  -16.5763   19.1687 H   0  0  0  0  0  0  0  0  0  0  0  0
   -2.8500  -18.7228   20.2876 H   0  0  0  0  0  0  0  0  0  0  0  0
   -1.0940  -20.2496   21.1502 H   0  0  0  0  0  0  0  0  0  0  0  0
    1.3115  -19.7376   20.7232 H   0  0  0  0  0  0  0  0  0  0  0  0
    2.9673  -17.7374   19.3701 H   0  0  0  0  0  0  0  0  0  0  0  0
  1  2  1  0
  2  3  1  0
  3  4  1  0
  2  5  1  0
  5  6  1  0
  6  7  1  0
  7  8  2  0
  8  9  1  0
  9 10  2  0
 10 11  1  0
 11 12  2  0
 12 13  1  0
 13 14  2  0
 14 15  1  0
 15  7  1  0
 14  9  1  0
  1 16  1  0
  1 17  1  0
  2 18  1  0
  3 19  1  0
  3 20  1  0
  4 21  1  0
  5 22  1  0
  5 23  1  0
 10 24  1  0
 11 25  1  0
 12 26  1  0
 13 27  1  0
 15 28  1  0
M  END
>  <Energy>  (223) 
77.958674534845031

>  <compound_id>  (223) 
57452

>  <target_id>  (223) 
1

>  <reference_id>  (223) 
52

>  <inspiration_ids>  (223) 
[52, 76]

>  <energy_score>  (223) 
22.98111869849481

>  <distance_score>  (223) 
17.78153853199029

>  <path>  (223) 
/opt/xchem-fragalysis-2/maxwin/BulkDock/SCRATCH/511025/C57452-P52/C57452-P52.minimised.mol

>  <scratch_subdir>  (223) 
/opt/xchem-fragalysis-2/maxwin/BulkDock/SCRATCH/511025/C57452-P52

>  <fragmenstein_runtime>  (223) 
6.5475568771362305

>  <fragmenstein_outcome>  (223) 
too moved

>  <fragmenstein_mode>  (223) 
expansion

>  <fragmenstein_error>  (223) 


$$$$
C57452-P76
     RDKit          3D

 28 29  0  0  0  0  0  0  0  0999 V2000
    4.3911   -5.9012   24.4710 N   0  0  0  0  0  0  0  0  0  0  0  0
    5.1467   -5.8658   25.7413 C   0  0  0  0  0  0  0  0  0  0  0  0
    6.6718   -5.7822   25.3182 C   0  0  0  0  0  0  0  0  0  0  0  0
    6.9143   -4.8505   24.2418 O   0  0  0  0  0  0  0  0  0  0  0  0
    4.7837   -7.0933   26.7911 C   0  0  0  0  0  0  0  0  0  0  0  0
    3.0442   -7.1398   27.8732 S   0  0  0  0  0  0  0  0  0  0  0  0
    2.2643   -8.7862   28.3414 C   0  0  0  0  0  0  0  0  0  0  0  0
    1.0486   -9.1937   27.9602 N   0  0  0  0  0  0  0  0  0  0  0  0
    0.7048  -10.3284   28.7209 C   0  0  0  0  0  0  0  0  0  0  0  0
   -0.4260  -11.1872   28.6876 C   0  0  0  0  0  0  0  0  0  0  0  0
   -0.5277  -12.2753   29.5730 C   0  0  0  0  0  0  0  0  0  0  0  0
    0.4920  -12.5166   30.4868 C   0  0  0  0  0  0  0  0  0  0  0  0
    1.6281  -11.6817   30.5353 C   0  0  0  0  0  0  0  0  0  0  0  0
    1.7116  -10.5940   29.6351 C   0  0  0  0  0  0  0  0  0  0  0  0
    2.6620   -9.5881   29.4060 N   0  0  0  0  0  0  0  0  0  0  0  0
    3.4059   -6.0933   24.6719 H   0  0  0  0  0  0  0  0  0  0  0  0
    4.3868   -4.9586   24.0726 H   0  0  0  0  0  0  0  0  0  0  0  0
    4.8870   -4.9307   26.2524 H   0  0  0  0  0  0  0  0  0  0  0  0
    7.0262   -6.7661   24.9912 H   0  0  0  0  0  0  0  0  0  0  0  0
    7.2732   -5.4682   26.1768 H   0  0  0  0  0  0  0  0  0  0  0  0
    6.3650   -5.1897   23.5087 H   0  0  0  0  0  0  0  0  0  0  0  0
    4.9043   -8.0535   26.2941 H   0  0  0  0  0  0  0  0  0  0  0  0
    5.5361   -7.0568   27.5873 H   0  0  0  0  0  0  0  0  0  0  0  0
   -1.2087  -11.0197   27.9580 H   0  0  0  0  0  0  0  0  0  0  0  0
   -1.3960  -12.9275   29.5287 H   0  0  0  0  0  0  0  0  0  0  0  0
    0.4182  -13.3615   31.1682 H   0  0  0  0  0  0  0  0  0  0  0  0
    2.4226  -11.8794   31.2490 H   0  0  0  0  0  0  0  0  0  0  0  0
    3.4959   -9.4408   29.9523 H   0  0  0  0  0  0  0  0  0  0  0  0
  1  2  1  0
  2  3  1  0
  3  4  1  0
  2  5  1  0
  5  6  1  0
  6  7  1  0
  7  8  2  0
  8  9  1  0
  9 10  2  0
 10 11  1  0
 11 12  2  0
 12 13  1  0
 13 14  2  0
 14 15  1  0
 15  7  1  0
 14  9  1  0
  1 16  1  0
  1 17  1  0
  2 18  1  0
  3 19  1  0
  3 20  1  0
  4 21  1  0
  5 22  1  0
  5 23  1  0
 10 24  1  0
 11 25  1  0
 12 26  1  0
 13 27  1  0
 15 28  1  0
M  END
>  <Energy>  (224) 
78.683369698358561

>  <compound_id>  (224) 
57452

>  <target_id>  (224) 
1

>  <reference_id>  (224) 
76

>  <inspiration_ids>  (224) 
[52, 76]

>  <energy_score>  (224) 
23.70581386201053

>  <distance_score>  (224) 
17.27484162164881

>  <path>  (224) 
/opt/xchem-fragalysis-2/maxwin/BulkDock/SCRATCH/511025/C57452-P76/C57452-P76.minimised.mol

>  <scratch_subdir>  (224) 
/opt/xchem-fragalysis-2/maxwin/BulkDock/SCRATCH/511025/C57452-P76

>  <fragmenstein_runtime>  (224) 
4.116664409637451

>  <fragmenstein_outcome>  (224) 
too moved

>  <fragmenstein_mode>  (224) 
expansion

>  <fragmenstein_error>  (224) 


$$$$
C57453-P52
     RDKit          3D

 42 43  0  0  0  0  0  0  0  0999 V2000
    8.5996   -9.8617   15.4504 C   0  0  0  0  0  0  0  0  0  0  0  0
    7.6250   -9.0545   16.1885 N   0  0  0  0  0  0  0  0  0  0  0  0
    6.1697   -9.6726   15.9825 C   0  0  0  0  0  0  0  0  0  0  0  0
    5.8081  -11.3026   16.4168 C   0  0  0  0  0  0  0  0  0  0  0  0
    4.4220  -12.1405   16.2725 C   0  0  0  0  0  0  0  0  0  0  0  0
    3.2651  -11.6087   15.6926 C   0  0  0  0  0  0  0  0  0  0  0  0
    2.0256  -12.3065   15.5798 C   0  0  0  0  0  0  0  0  0  0  0  0
    1.9484  -13.6206   16.0301 C   0  0  0  0  0  0  0  0  0  0  0  0
    0.9297  -14.5436   16.0668 N   0  0  0  0  0  0  0  0  0  0  0  0
    1.4793  -15.7457   16.3945 C   0  0  0  0  0  0  0  0  0  0  0  0
    2.7653  -15.6205   16.6649 N   0  0  0  0  0  0  0  0  0  0  0  0
    3.0728  -14.2745   16.5103 C   0  0  0  0  0  0  0  0  0  0  0  0
    4.2969  -13.5211   16.6673 C   0  0  0  0  0  0  0  0  0  0  0  0
    7.9079   -7.5245   15.9630 C   0  0  0  0  0  0  0  0  0  0  0  0
    7.4301   -7.0168   14.5886 C   0  0  0  0  0  0  0  0  0  0  0  0
    7.1682   -6.7358   17.0668 C   0  0  0  0  0  0  0  0  0  0  0  0
    9.4637   -7.1353   16.1139 C   0  0  0  0  0  0  0  0  0  0  0  0
    9.8788   -5.6673   15.8761 C   0  0  0  0  0  0  0  0  0  0  0  0
   10.3721   -5.5227   14.5538 O   0  0  0  0  0  0  0  0  0  0  0  0
    8.5668   -9.6708   14.3736 H   0  0  0  0  0  0  0  0  0  0  0  0
    9.6167   -9.7121   15.8222 H   0  0  0  0  0  0  0  0  0  0  0  0
    8.4217  -10.9300   15.6016 H   0  0  0  0  0  0  0  0  0  0  0  0
    5.9115   -9.5707   14.9224 H   0  0  0  0  0  0  0  0  0  0  0  0
    5.4832   -9.0528   16.5639 H   0  0  0  0  0  0  0  0  0  0  0  0
    6.5289  -11.9109   15.8582 H   0  0  0  0  0  0  0  0  0  0  0  0
    6.0682  -11.3695   17.4813 H   0  0  0  0  0  0  0  0  0  0  0  0
    3.2945  -10.5830   15.3234 H   0  0  0  0  0  0  0  0  0  0  0  0
    1.1783  -11.8090   15.1201 H   0  0  0  0  0  0  0  0  0  0  0  0
   -0.0250  -14.3807   15.7866 H   0  0  0  0  0  0  0  0  0  0  0  0
    0.9114  -16.6651   16.4283 H   0  0  0  0  0  0  0  0  0  0  0  0
    5.1567  -14.0409   17.0786 H   0  0  0  0  0  0  0  0  0  0  0  0
    6.3730   -7.2546   14.4279 H   0  0  0  0  0  0  0  0  0  0  0  0
    7.5221   -5.9298   14.4950 H   0  0  0  0  0  0  0  0  0  0  0  0
    8.0024   -7.4717   13.7735 H   0  0  0  0  0  0  0  0  0  0  0  0
    6.0887   -6.9182   17.0274 H   0  0  0  0  0  0  0  0  0  0  0  0
    7.2976   -5.6538   16.9750 H   0  0  0  0  0  0  0  0  0  0  0  0
    7.5165   -7.0318   18.0630 H   0  0  0  0  0  0  0  0  0  0  0  0
    9.7644   -7.4125   17.1330 H   0  0  0  0  0  0  0  0  0  0  0  0
   10.0562   -7.7444   15.4230 H   0  0  0  0  0  0  0  0  0  0  0  0
   10.6828   -5.3863   16.5646 H   0  0  0  0  0  0  0  0  0  0  0  0
    9.0577   -4.9647   16.0151 H   0  0  0  0  0  0  0  0  0  0  0  0
   11.2855   -5.8824   14.5371 H   0  0  0  0  0  0  0  0  0  0  0  0
  1  2  1  0
  2  3  1  0
  3  4  1  0
  4  5  1  0
  5  6  2  0
  6  7  1  0
  7  8  2  0
  8  9  1  0
  9 10  1  0
 10 11  2  0
 11 12  1  0
 12 13  2  0
  2 14  1  0
 14 15  1  0
 14 16  1  0
 14 17  1  0
 17 18  1  0
 18 19  1  0
 13  5  1  0
 12  8  1  0
  1 20  1  0
  1 21  1  0
  1 22  1  0
  3 23  1  0
  3 24  1  0
  4 25  1  0
  4 26  1  0
  6 27  1  0
  7 28  1  0
  9 29  1  0
 10 30  1  0
 13 31  1  0
 15 32  1  0
 15 33  1  0
 15 34  1  0
 16 35  1  0
 16 36  1  0
 16 37  1  0
 17 38  1  0
 17 39  1  0
 18 40  1  0
 18 41  1  0
 19 42  1  0
M  END
>  <Energy>  (225) 
86.053275178166871

>  <compound_id>  (225) 
57453

>  <target_id>  (225) 
1

>  <reference_id>  (225) 
52

>  <inspiration_ids>  (225) 
[52, 76]

>  <energy_score>  (225) 
-8.854505325673244

>  <distance_score>  (225) 
18.782699053435547

>  <path>  (225) 
/opt/xchem-fragalysis-2/maxwin/BulkDock/SCRATCH/511025/C57453-P52/C57453-P52.minimised.mol

>  <scratch_subdir>  (225) 
/opt/xchem-fragalysis-2/maxwin/BulkDock/SCRATCH/511025/C57453-P52

>  <fragmenstein_runtime>  (225) 
12.339367866516113

>  <fragmenstein_outcome>  (225) 
too moved

>  <fragmenstein_mode>  (225) 
expansion

>  <fragmenstein_error>  (225) 


$$$$
C57453-P76
     RDKit          3D

 42 43  0  0  0  0  0  0  0  0999 V2000
    2.9361  -12.9218   23.7355 C   0  0  0  0  0  0  0  0  0  0  0  0
    2.2172  -11.6885   23.9140 N   0  0  0  0  0  0  0  0  0  0  0  0
    1.3521  -12.1291   25.6069 C   0  0  0  0  0  0  0  0  0  0  0  0
   -0.0087  -12.2608   26.9225 C   0  0  0  0  0  0  0  0  0  0  0  0
   -1.1420  -13.2426   27.5071 C   0  0  0  0  0  0  0  0  0  0  0  0
   -0.9398  -13.8849   28.7640 C   0  0  0  0  0  0  0  0  0  0  0  0
   -1.8857  -14.7409   29.3969 C   0  0  0  0  0  0  0  0  0  0  0  0
   -3.0989  -14.9492   28.7432 C   0  0  0  0  0  0  0  0  0  0  0  0
   -4.2101  -15.7029   29.0455 N   0  0  0  0  0  0  0  0  0  0  0  0
   -5.1201  -15.5244   28.0410 C   0  0  0  0  0  0  0  0  0  0  0  0
   -4.6650  -14.7035   27.1168 N   0  0  0  0  0  0  0  0  0  0  0  0
   -3.3978  -14.3290   27.5346 C   0  0  0  0  0  0  0  0  0  0  0  0
   -2.4287  -13.4517   26.9367 C   0  0  0  0  0  0  0  0  0  0  0  0
    3.2111  -10.1653   23.0494 C   0  0  0  0  0  0  0  0  0  0  0  0
    4.2778   -8.3198   23.1653 C   0  0  0  0  0  0  0  0  0  0  0  0
    4.5158  -10.9297   22.3990 C   0  0  0  0  0  0  0  0  0  0  0  0
    1.9167   -8.9669   21.9387 C   0  0  0  0  0  0  0  0  0  0  0  0
    0.4643   -9.0650   21.4064 C   0  0  0  0  0  0  0  0  0  0  0  0
    0.2074   -8.2254   20.2894 O   0  0  0  0  0  0  0  0  0  0  0  0
    3.5531  -13.2788   24.5323 H   0  0  0  0  0  0  0  0  0  0  0  0
    3.2531  -12.9338   22.7416 H   0  0  0  0  0  0  0  0  0  0  0  0
    2.3873  -13.8342   23.6744 H   0  0  0  0  0  0  0  0  0  0  0  0
    1.6764  -13.1378   25.8244 H   0  0  0  0  0  0  0  0  0  0  0  0
    1.5211  -11.2775   26.2321 H   0  0  0  0  0  0  0  0  0  0  0  0
    0.6948  -12.3044   27.7757 H   0  0  0  0  0  0  0  0  0  0  0  0
   -0.4320  -11.2692   27.0868 H   0  0  0  0  0  0  0  0  0  0  0  0
    0.0085  -13.7363   29.2832 H   0  0  0  0  0  0  0  0  0  0  0  0
   -1.6551  -15.2127   30.3465 H   0  0  0  0  0  0  0  0  0  0  0  0
   -4.3299  -16.2878   29.8608 H   0  0  0  0  0  0  0  0  0  0  0  0
   -6.0849  -16.0133   28.0396 H   0  0  0  0  0  0  0  0  0  0  0  0
   -2.7093  -12.9511   26.0198 H   0  0  0  0  0  0  0  0  0  0  0  0
    4.9453   -8.1073   24.1230 H   0  0  0  0  0  0  0  0  0  0  0  0
    4.8011   -7.8057   22.4108 H   0  0  0  0  0  0  0  0  0  0  0  0
    3.5813   -7.5500   23.5166 H   0  0  0  0  0  0  0  0  0  0  0  0
    5.1345  -10.9359   21.5007 H   0  0  0  0  0  0  0  0  0  0  0  0
    5.3289  -10.8316   23.1422 H   0  0  0  0  0  0  0  0  0  0  0  0
    4.0780  -11.8186   22.0065 H   0  0  0  0  0  0  0  0  0  0  0  0
    1.4370   -8.2898   22.7350 H   0  0  0  0  0  0  0  0  0  0  0  0
    2.4652   -8.1439   21.9979 H   0  0  0  0  0  0  0  0  0  0  0  0
    0.1236  -10.0881   21.2836 H   0  0  0  0  0  0  0  0  0  0  0  0
   -0.2590   -8.7012   22.1533 H   0  0  0  0  0  0  0  0  0  0  0  0
    0.1170   -8.8583   19.5444 H   0  0  0  0  0  0  0  0  0  0  0  0
  1  2  1  0
  2  3  1  0
  3  4  1  0
  4  5  1  0
  5  6  2  0
  6  7  1  0
  7  8  2  0
  8  9  1  0
  9 10  1  0
 10 11  2  0
 11 12  1  0
 12 13  2  0
  2 14  1  0
 14 15  1  0
 14 16  1  0
 14 17  1  0
 17 18  1  0
 18 19  1  0
 13  5  1  0
 12  8  1  0
  1 20  1  0
  1 21  1  0
  1 22  1  0
  3 23  1  0
  3 24  1  0
  4 25  1  0
  4 26  1  0
  6 27  1  0
  7 28  1  0
  9 29  1  0
 10 30  1  0
 13 31  1  0
 15 32  1  0
 15 33  1  0
 15 34  1  0
 16 35  1  0
 16 36  1  0
 16 37  1  0
 17 38  1  0
 17 39  1  0
 18 40  1  0
 18 41  1  0
 19 42  1  0
M  END
>  <Energy>  (226) 
666.47472669185879

>  <compound_id>  (226) 
57453

>  <target_id>  (226) 
1

>  <reference_id>  (226) 
76

>  <inspiration_ids>  (226) 
[52, 76]

>  <energy_score>  (226) 
571.5669461880136

>  <distance_score>  (226) 
15.823220322534535

>  <path>  (226) 
/opt/xchem-fragalysis-2/maxwin/BulkDock/SCRATCH/511025/C57453-P76/C57453-P76.minimised.mol

>  <scratch_subdir>  (226) 
/opt/xchem-fragalysis-2/maxwin/BulkDock/SCRATCH/511025/C57453-P76

>  <fragmenstein_runtime>  (226) 
8.404649019241333

>  <fragmenstein_outcome>  (226) 
too moved

>  <fragmenstein_mode>  (226) 
expansion

>  <fragmenstein_error>  (226) 


$$$$
C57463-P52
     RDKit          3D

 30 31  0  0  0  0  0  0  0  0999 V2000
    3.7998   -4.2746   23.2147 O   0  0  0  0  0  0  0  0  0  0  0  0
    2.3876   -4.3708   23.4380 C   0  0  0  0  0  0  0  0  0  0  0  0
    1.9951   -5.2606   24.6692 C   0  0  0  0  0  0  0  0  0  0  0  0
    0.4175   -5.4361   24.9263 C   0  0  0  0  0  0  0  0  0  0  0  0
   -0.1254   -6.5030   25.9512 N   0  0  0  0  0  0  0  0  0  0  0  0
   -1.6684   -6.4953   26.1181 C   0  0  0  0  0  0  0  0  0  0  0  0
   -2.4869   -7.5721   27.0155 C   0  0  0  0  0  0  0  0  0  0  0  0
   -2.2806   -7.7220   28.4020 C   0  0  0  0  0  0  0  0  0  0  0  0
   -3.1074   -8.5516   29.2387 C   0  0  0  0  0  0  0  0  0  0  0  0
   -4.1719   -9.2915   28.6906 C   0  0  0  0  0  0  0  0  0  0  0  0
   -5.0619  -10.1794   29.2691 N   0  0  0  0  0  0  0  0  0  0  0  0
   -5.8444  -10.5675   28.2891 C   0  0  0  0  0  0  0  0  0  0  0  0
   -5.5096   -9.9521   27.1114 N   0  0  0  0  0  0  0  0  0  0  0  0
   -4.4181   -9.1355   27.3304 C   0  0  0  0  0  0  0  0  0  0  0  0
   -3.6268   -8.2800   26.4920 C   0  0  0  0  0  0  0  0  0  0  0  0
    4.1933   -3.8741   24.0087 H   0  0  0  0  0  0  0  0  0  0  0  0
    1.9929   -3.3583   23.5703 H   0  0  0  0  0  0  0  0  0  0  0  0
    1.9411   -4.7924   22.5320 H   0  0  0  0  0  0  0  0  0  0  0  0
    2.4486   -4.8383   25.5740 H   0  0  0  0  0  0  0  0  0  0  0  0
    2.4475   -6.2470   24.5482 H   0  0  0  0  0  0  0  0  0  0  0  0
   -0.0507   -5.6749   23.9650 H   0  0  0  0  0  0  0  0  0  0  0  0
    0.0278   -4.4648   25.2526 H   0  0  0  0  0  0  0  0  0  0  0  0
    0.2647   -6.2697   26.8667 H   0  0  0  0  0  0  0  0  0  0  0  0
   -1.9488   -5.5110   26.5132 H   0  0  0  0  0  0  0  0  0  0  0  0
   -2.0866   -6.5676   25.1077 H   0  0  0  0  0  0  0  0  0  0  0  0
   -1.4639   -7.1827   28.8791 H   0  0  0  0  0  0  0  0  0  0  0  0
   -2.8873   -8.6419   30.2978 H   0  0  0  0  0  0  0  0  0  0  0  0
   -6.6621  -11.2711   28.3676 H   0  0  0  0  0  0  0  0  0  0  0  0
   -5.9827  -10.0756   26.2299 H   0  0  0  0  0  0  0  0  0  0  0  0
   -3.8981   -8.1661   25.4459 H   0  0  0  0  0  0  0  0  0  0  0  0
  1  2  1  0
  2  3  1  0
  3  4  1  0
  4  5  1  0
  5  6  1  0
  6  7  1  0
  7  8  2  0
  8  9  1  0
  9 10  2  0
 10 11  1  0
 11 12  2  0
 12 13  1  0
 13 14  1  0
 14 15  2  0
 15  7  1  0
 14 10  1  0
  1 16  1  0
  2 17  1  0
  2 18  1  0
  3 19  1  0
  3 20  1  0
  4 21  1  0
  4 22  1  0
  5 23  1  0
  6 24  1  0
  6 25  1  0
  8 26  1  0
  9 27  1  0
 12 28  1  0
 13 29  1  0
 15 30  1  0
M  END
>  <Energy>  (227) 
37.310497112360935

>  <compound_id>  (227) 
57463

>  <target_id>  (227) 
1

>  <reference_id>  (227) 
52

>  <inspiration_ids>  (227) 
[52, 76]

>  <energy_score>  (227) 
10.03700908236101

>  <distance_score>  (227) 
16.69599176725021

>  <path>  (227) 
/opt/xchem-fragalysis-2/maxwin/BulkDock/SCRATCH/511025/C57463-P52/C57463-P52.minimised.mol

>  <scratch_subdir>  (227) 
/opt/xchem-fragalysis-2/maxwin/BulkDock/SCRATCH/511025/C57463-P52

>  <fragmenstein_runtime>  (227) 
8.173985004425049

>  <fragmenstein_outcome>  (227) 
too moved

>  <fragmenstein_mode>  (227) 
expansion

>  <fragmenstein_error>  (227) 


$$$$
C57463-P76
     RDKit          3D

 30 31  0  0  0  0  0  0  0  0999 V2000
    0.1177  -10.0923   20.9113 O   0  0  0  0  0  0  0  0  0  0  0  0
   -0.8220  -10.7437   21.7964 C   0  0  0  0  0  0  0  0  0  0  0  0
   -0.4224  -12.5475   22.6212 C   0  0  0  0  0  0  0  0  0  0  0  0
   -1.1153  -14.4228   23.3546 C   0  0  0  0  0  0  0  0  0  0  0  0
   -2.9722  -15.1644   23.7746 N   0  0  0  0  0  0  0  0  0  0  0  0
   -4.8721  -15.0297   23.3746 C   0  0  0  0  0  0  0  0  0  0  0  0
   -6.3983  -15.8934   23.7417 C   0  0  0  0  0  0  0  0  0  0  0  0
   -6.7003  -17.2191   23.3042 C   0  0  0  0  0  0  0  0  0  0  0  0
   -7.9640  -17.8346   23.4055 C   0  0  0  0  0  0  0  0  0  0  0  0
   -9.0429  -17.0234   23.7319 C   0  0  0  0  0  0  0  0  0  0  0  0
  -10.3907  -17.2862   23.6394 N   0  0  0  0  0  0  0  0  0  0  0  0
  -10.9576  -16.1089   23.7769 C   0  0  0  0  0  0  0  0  0  0  0  0
  -10.0647  -15.1675   24.2048 N   0  0  0  0  0  0  0  0  0  0  0  0
   -8.8091  -15.7045   24.0811 C   0  0  0  0  0  0  0  0  0  0  0  0
   -7.5326  -15.1182   24.1184 C   0  0  0  0  0  0  0  0  0  0  0  0
    0.9823  -10.0435   21.3756 H   0  0  0  0  0  0  0  0  0  0  0  0
   -0.9674   -9.9532   22.5101 H   0  0  0  0  0  0  0  0  0  0  0  0
   -1.7630  -10.8056   21.2183 H   0  0  0  0  0  0  0  0  0  0  0  0
    0.4975  -11.9143   22.9046 H   0  0  0  0  0  0  0  0  0  0  0  0
   -1.2369  -12.4892   21.4314 H   0  0  0  0  0  0  0  0  0  0  0  0
   -0.7422  -14.4290   24.3575 H   0  0  0  0  0  0  0  0  0  0  0  0
   -0.8027  -14.9652   22.4817 H   0  0  0  0  0  0  0  0  0  0  0  0
   -2.8609  -15.5037   24.7332 H   0  0  0  0  0  0  0  0  0  0  0  0
   -4.9260  -15.6200   22.4203 H   0  0  0  0  0  0  0  0  0  0  0  0
   -5.2666  -14.0037   23.3784 H   0  0  0  0  0  0  0  0  0  0  0  0
   -5.9667  -17.8199   22.7679 H   0  0  0  0  0  0  0  0  0  0  0  0
   -8.1147  -18.8477   23.0495 H   0  0  0  0  0  0  0  0  0  0  0  0
  -12.0071  -15.8856   23.6327 H   0  0  0  0  0  0  0  0  0  0  0  0
  -10.2737  -14.1969   24.3885 H   0  0  0  0  0  0  0  0  0  0  0  0
   -7.4646  -14.0457   24.2835 H   0  0  0  0  0  0  0  0  0  0  0  0
  1  2  1  0
  2  3  1  0
  3  4  1  0
  4  5  1  0
  5  6  1  0
  6  7  1  0
  7  8  2  0
  8  9  1  0
  9 10  2  0
 10 11  1  0
 11 12  2  0
 12 13  1  0
 13 14  1  0
 14 15  2  0
 15  7  1  0
 14 10  1  0
  1 16  1  0
  2 17  1  0
  2 18  1  0
  3 19  1  0
  3 20  1  0
  4 21  1  0
  4 22  1  0
  5 23  1  0
  6 24  1  0
  6 25  1  0
  8 26  1  0
  9 27  1  0
 12 28  1  0
 13 29  1  0
 15 30  1  0
M  END
>  <Energy>  (228) 
548.92388634497684

>  <compound_id>  (228) 
57463

>  <target_id>  (228) 
1

>  <reference_id>  (228) 
76

>  <inspiration_ids>  (228) 
[52, 76]

>  <energy_score>  (228) 
521.6503983149726

>  <distance_score>  (228) 
16.271442790606155

>  <path>  (228) 
/opt/xchem-fragalysis-2/maxwin/BulkDock/SCRATCH/511025/C57463-P76/C57463-P76.minimised.mol

>  <scratch_subdir>  (228) 
/opt/xchem-fragalysis-2/maxwin/BulkDock/SCRATCH/511025/C57463-P76

>  <fragmenstein_runtime>  (228) 
3.7980456352233887

>  <fragmenstein_outcome>  (228) 
too moved

>  <fragmenstein_mode>  (228) 
expansion

>  <fragmenstein_error>  (228) 


$$$$
C57466-P52
     RDKit          3D

 34 35  0  0  0  0  0  0  0  0999 V2000
    7.8381   -9.4778   22.6722 C   0  0  0  0  0  0  0  0  0  0  0  0
    7.8614  -10.7864   23.4763 C   0  0  0  0  0  0  0  0  0  0  0  0
    6.5267  -11.1438   24.0411 N   0  0  0  0  0  0  0  0  0  0  0  0
    6.4695  -12.5253   24.7289 C   0  0  0  0  0  0  0  0  0  0  0  0
    5.1145  -12.8990   25.5095 C   0  0  0  0  0  0  0  0  0  0  0  0
    5.1317  -14.5992   26.4889 S   0  0  0  0  0  0  0  0  0  0  0  0
    3.5536  -15.2062   27.1716 C   0  0  0  0  0  0  0  0  0  0  0  0
    3.0823  -15.0180   28.3985 N   0  0  0  0  0  0  0  0  0  0  0  0
    2.2186  -16.0905   28.6753 C   0  0  0  0  0  0  0  0  0  0  0  0
    1.5532  -16.4735   29.8661 C   0  0  0  0  0  0  0  0  0  0  0  0
    0.7763  -17.6524   29.8932 C   0  0  0  0  0  0  0  0  0  0  0  0
    0.6287  -18.4259   28.7409 C   0  0  0  0  0  0  0  0  0  0  0  0
    1.2844  -18.0690   27.5493 C   0  0  0  0  0  0  0  0  0  0  0  0
    2.0908  -16.9110   27.5617 C   0  0  0  0  0  0  0  0  0  0  0  0
    2.9588  -16.3448   26.6364 N   0  0  0  0  0  0  0  0  0  0  0  0
    6.6678  -13.6271   23.6230 C   0  0  0  0  0  0  0  0  0  0  0  0
    7.4422  -14.7493   24.1237 N   0  0  0  0  0  0  0  0  0  0  0  0
    6.1973  -13.4245   22.5357 O   0  0  0  0  0  0  0  0  0  0  0  0
    8.8389   -9.2506   22.2924 H   0  0  0  0  0  0  0  0  0  0  0  0
    7.1558   -9.5578   21.8198 H   0  0  0  0  0  0  0  0  0  0  0  0
    7.5101   -8.6428   23.2997 H   0  0  0  0  0  0  0  0  0  0  0  0
    8.5728  -10.6823   24.3027 H   0  0  0  0  0  0  0  0  0  0  0  0
    8.2228  -11.5851   22.8203 H   0  0  0  0  0  0  0  0  0  0  0  0
    5.8771  -11.2207   23.2472 H   0  0  0  0  0  0  0  0  0  0  0  0
    7.2925  -12.5395   25.4521 H   0  0  0  0  0  0  0  0  0  0  0  0
    4.8971  -12.1332   26.2581 H   0  0  0  0  0  0  0  0  0  0  0  0
    4.3016  -12.9669   24.7885 H   0  0  0  0  0  0  0  0  0  0  0  0
    1.6602  -15.8610   30.7553 H   0  0  0  0  0  0  0  0  0  0  0  0
    0.2731  -17.9412   30.8125 H   0  0  0  0  0  0  0  0  0  0  0  0
    0.0125  -19.3218   28.7668 H   0  0  0  0  0  0  0  0  0  0  0  0
    1.2035  -18.6897   26.6622 H   0  0  0  0  0  0  0  0  0  0  0  0
    3.2155  -16.7538   25.7508 H   0  0  0  0  0  0  0  0  0  0  0  0
    7.7799  -14.5279   25.0792 H   0  0  0  0  0  0  0  0  0  0  0  0
    7.5792  -14.6367   25.1467 H   0  0  0  0  0  0  0  0  0  0  0  0
  1  2  1  0
  2  3  1  0
  3  4  1  0
  4  5  1  0
  5  6  1  0
  6  7  1  0
  7  8  2  0
  8  9  1  0
  9 10  2  0
 10 11  1  0
 11 12  2  0
 12 13  1  0
 13 14  2  0
 14 15  1  0
  4 16  1  0
 16 17  1  0
 16 18  2  0
 15  7  1  0
 14  9  1  0
  1 19  1  0
  1 20  1  0
  1 21  1  0
  2 22  1  0
  2 23  1  0
  3 24  1  0
  4 25  1  0
  5 26  1  0
  5 27  1  0
 10 28  1  0
 11 29  1  0
 12 30  1  0
 13 31  1  0
 15 32  1  0
 17 33  1  0
 17 34  1  0
M  END
>  <Energy>  (229) 
232.45554031572274

>  <compound_id>  (229) 
57466

>  <target_id>  (229) 
1

>  <reference_id>  (229) 
52

>  <inspiration_ids>  (229) 
[52, 76]

>  <energy_score>  (229) 
151.00728069631123

>  <distance_score>  (229) 
16.26739264671398

>  <path>  (229) 
/opt/xchem-fragalysis-2/maxwin/BulkDock/SCRATCH/511025/C57466-P52/C57466-P52.minimised.mol

>  <scratch_subdir>  (229) 
/opt/xchem-fragalysis-2/maxwin/BulkDock/SCRATCH/511025/C57466-P52

>  <fragmenstein_runtime>  (229) 
13.741451025009155

>  <fragmenstein_outcome>  (229) 
too moved

>  <fragmenstein_mode>  (229) 
expansion

>  <fragmenstein_error>  (229) 


$$$$
C57466-P76
     RDKit          3D

 34 35  0  0  0  0  0  0  0  0999 V2000
    2.2398   -7.0159   20.9296 C   0  0  0  0  0  0  0  0  0  0  0  0
    1.2222   -8.1358   20.6411 C   0  0  0  0  0  0  0  0  0  0  0  0
    0.4403   -8.5484   21.8398 N   0  0  0  0  0  0  0  0  0  0  0  0
   -0.2802  -10.0529   21.8994 C   0  0  0  0  0  0  0  0  0  0  0  0
    0.2977  -11.6335   22.8408 C   0  0  0  0  0  0  0  0  0  0  0  0
   -0.3350  -13.9579   23.4812 S   0  0  0  0  0  0  0  0  0  0  0  0
   -1.8038  -14.5184   25.1984 C   0  0  0  0  0  0  0  0  0  0  0  0
   -1.9243  -14.2292   26.5949 N   0  0  0  0  0  0  0  0  0  0  0  0
   -2.1948  -15.6171   27.5382 C   0  0  0  0  0  0  0  0  0  0  0  0
   -2.1685  -15.8871   28.9261 C   0  0  0  0  0  0  0  0  0  0  0  0
   -2.6120  -17.1537   29.3808 C   0  0  0  0  0  0  0  0  0  0  0  0
   -3.0521  -18.1630   28.5011 C   0  0  0  0  0  0  0  0  0  0  0  0
   -3.0609  -17.9902   27.1074 C   0  0  0  0  0  0  0  0  0  0  0  0
   -2.6030  -16.7376   26.6653 C   0  0  0  0  0  0  0  0  0  0  0  0
   -2.5936  -15.8724   25.1654 N   0  0  0  0  0  0  0  0  0  0  0  0
   -1.7903   -9.7160   21.4886 C   0  0  0  0  0  0  0  0  0  0  0  0
   -1.9250   -9.4666   20.0750 N   0  0  0  0  0  0  0  0  0  0  0  0
   -2.6002   -9.6659   22.3680 O   0  0  0  0  0  0  0  0  0  0  0  0
    2.9801   -7.3445   21.6663 H   0  0  0  0  0  0  0  0  0  0  0  0
    2.7664   -6.7389   20.0111 H   0  0  0  0  0  0  0  0  0  0  0  0
    1.7350   -6.1261   21.3189 H   0  0  0  0  0  0  0  0  0  0  0  0
    0.5253   -7.7856   19.8737 H   0  0  0  0  0  0  0  0  0  0  0  0
    1.7984   -8.9535   20.2269 H   0  0  0  0  0  0  0  0  0  0  0  0
    1.1255   -8.6425   22.5856 H   0  0  0  0  0  0  0  0  0  0  0  0
    0.1845  -10.3848   21.0357 H   0  0  0  0  0  0  0  0  0  0  0  0
    1.1085  -11.5588   23.6041 H   0  0  0  0  0  0  0  0  0  0  0  0
    1.1835  -11.6212   22.3384 H   0  0  0  0  0  0  0  0  0  0  0  0
   -1.8677  -15.1139   29.6243 H   0  0  0  0  0  0  0  0  0  0  0  0
   -2.6291  -17.3458   30.4532 H   0  0  0  0  0  0  0  0  0  0  0  0
   -3.4024  -19.1053   28.9227 H   0  0  0  0  0  0  0  0  0  0  0  0
   -3.4105  -18.7728   26.4480 H   0  0  0  0  0  0  0  0  0  0  0  0
   -3.4946  -15.7743   24.7984 H   0  0  0  0  0  0  0  0  0  0  0  0
   -0.9787   -9.4914   19.6341 H   0  0  0  0  0  0  0  0  0  0  0  0
   -1.0340   -9.7210   19.5996 H   0  0  0  0  0  0  0  0  0  0  0  0
  1  2  1  0
  2  3  1  0
  3  4  1  0
  4  5  1  0
  5  6  1  0
  6  7  1  0
  7  8  2  0
  8  9  1  0
  9 10  2  0
 10 11  1  0
 11 12  2  0
 12 13  1  0
 13 14  2  0
 14 15  1  0
  4 16  1  0
 16 17  1  0
 16 18  2  0
 15  7  1  0
 14  9  1  0
  1 19  1  0
  1 20  1  0
  1 21  1  0
  2 22  1  0
  2 23  1  0
  3 24  1  0
  4 25  1  0
  5 26  1  0
  5 27  1  0
 10 28  1  0
 11 29  1  0
 12 30  1  0
 13 31  1  0
 15 32  1  0
 17 33  1  0
 17 34  1  0
M  END
>  <Energy>  (230) 
629.95643342077824

>  <compound_id>  (230) 
57466

>  <target_id>  (230) 
1

>  <reference_id>  (230) 
76

>  <inspiration_ids>  (230) 
[52, 76]

>  <energy_score>  (230) 
548.508173801366

>  <distance_score>  (230) 
15.621660667019786

>  <path>  (230) 
/opt/xchem-fragalysis-2/maxwin/BulkDock/SCRATCH/511025/C57466-P76/C57466-P76.minimised.mol

>  <scratch_subdir>  (230) 
/opt/xchem-fragalysis-2/maxwin/BulkDock/SCRATCH/511025/C57466-P76

>  <fragmenstein_runtime>  (230) 
7.83598518371582

>  <fragmenstein_outcome>  (230) 
too moved

>  <fragmenstein_mode>  (230) 
expansion

>  <fragmenstein_error>  (230) 


$$$$
C77323-P52
     RDKit          3D

 41 43  0  0  0  0  0  0  0  0999 V2000
    6.3213  -10.9674   22.9485 C   0  0  0  0  0  0  0  0  0  0  0  0
    7.1088  -11.1256   24.2527 C   0  0  0  0  0  0  0  0  0  0  0  0
    6.7660  -10.0450   25.2804 C   0  0  0  0  0  0  0  0  0  0  0  0
    8.5290  -10.9455   23.8298 O   0  0  0  0  0  0  0  0  0  0  0  0
    9.1666   -9.8474   23.2935 C   0  0  0  0  0  0  0  0  0  0  0  0
   10.3816  -10.1394   22.6472 C   0  0  0  0  0  0  0  0  0  0  0  0
   11.2156   -9.1349   22.1246 C   0  0  0  0  0  0  0  0  0  0  0  0
   10.8588   -7.7998   22.2592 C   0  0  0  0  0  0  0  0  0  0  0  0
    9.6670   -7.4873   22.9071 C   0  0  0  0  0  0  0  0  0  0  0  0
    8.8143   -8.5025   23.3918 C   0  0  0  0  0  0  0  0  0  0  0  0
    6.8184  -12.6652   24.9506 C   0  0  0  0  0  0  0  0  0  0  0  0
    7.7395  -13.4823   25.0271 O   0  0  0  0  0  0  0  0  0  0  0  0
    5.5294  -13.0094   25.4822 O   0  0  0  0  0  0  0  0  0  0  0  0
    5.4558  -14.4271   26.1031 C   0  0  0  0  0  0  0  0  0  0  0  0
    4.0719  -15.0680   26.7137 C   0  0  0  0  0  0  0  0  0  0  0  0
    3.3534  -16.0826   26.2034 N   0  0  0  0  0  0  0  0  0  0  0  0
    2.4154  -16.5021   27.1599 C   0  0  0  0  0  0  0  0  0  0  0  0
    1.4218  -17.5148   27.1292 C   0  0  0  0  0  0  0  0  0  0  0  0
    0.5700  -17.7091   28.2323 C   0  0  0  0  0  0  0  0  0  0  0  0
    0.7120  -16.9144   29.3662 C   0  0  0  0  0  0  0  0  0  0  0  0
    1.7090  -15.9216   29.4287 C   0  0  0  0  0  0  0  0  0  0  0  0
    2.5458  -15.7423   28.3065 C   0  0  0  0  0  0  0  0  0  0  0  0
    3.6372  -14.9203   28.0371 N   0  0  0  0  0  0  0  0  0  0  0  0
    5.2781  -11.2612   23.0851 H   0  0  0  0  0  0  0  0  0  0  0  0
    6.3513   -9.9445   22.5608 H   0  0  0  0  0  0  0  0  0  0  0  0
    6.7377  -11.6178   22.1703 H   0  0  0  0  0  0  0  0  0  0  0  0
    5.9701  -10.3840   25.9513 H   0  0  0  0  0  0  0  0  0  0  0  0
    7.6310   -9.8035   25.9074 H   0  0  0  0  0  0  0  0  0  0  0  0
    6.4028   -9.1230   24.8254 H   0  0  0  0  0  0  0  0  0  0  0  0
   10.6951  -11.1792   22.5608 H   0  0  0  0  0  0  0  0  0  0  0  0
   12.1468   -9.4093   21.6350 H   0  0  0  0  0  0  0  0  0  0  0  0
   11.5140   -7.0172   21.8875 H   0  0  0  0  0  0  0  0  0  0  0  0
    9.4037   -6.4449   23.0715 H   0  0  0  0  0  0  0  0  0  0  0  0
    7.9140   -8.1823   23.8937 H   0  0  0  0  0  0  0  0  0  0  0  0
    5.7746  -15.1182   25.3139 H   0  0  0  0  0  0  0  0  0  0  0  0
    6.1830  -14.4347   26.9233 H   0  0  0  0  0  0  0  0  0  0  0  0
    1.3254  -18.1297   26.2408 H   0  0  0  0  0  0  0  0  0  0  0  0
   -0.1927  -18.4819   28.1968 H   0  0  0  0  0  0  0  0  0  0  0  0
    0.0555  -17.0674   30.2201 H   0  0  0  0  0  0  0  0  0  0  0  0
    1.8305  -15.3169   30.3221 H   0  0  0  0  0  0  0  0  0  0  0  0
    4.0765  -14.3153   28.7132 H   0  0  0  0  0  0  0  0  0  0  0  0
  1  2  1  0
  2  3  1  0
  2  4  1  0
  4  5  1  0
  5  6  2  0
  6  7  1  0
  7  8  2  0
  8  9  1  0
  9 10  2  0
  2 11  1  0
 11 12  2  0
 11 13  1  0
 13 14  1  0
 14 15  1  0
 15 16  2  0
 16 17  1  0
 17 18  2  0
 18 19  1  0
 19 20  2  0
 20 21  1  0
 21 22  2  0
 22 23  1  0
 10  5  1  0
 23 15  1  0
 22 17  1  0
  1 24  1  0
  1 25  1  0
  1 26  1  0
  3 27  1  0
  3 28  1  0
  3 29  1  0
  6 30  1  0
  7 31  1  0
  8 32  1  0
  9 33  1  0
 10 34  1  0
 14 35  1  0
 14 36  1  0
 18 37  1  0
 19 38  1  0
 20 39  1  0
 21 40  1  0
 23 41  1  0
M  END
>  <Energy>  (231) 
111.85059398502969

>  <compound_id>  (231) 
77323

>  <target_id>  (231) 
1

>  <reference_id>  (231) 
52

>  <inspiration_ids>  (231) 
[52, 76]

>  <energy_score>  (231) 
20.9285023507025

>  <distance_score>  (231) 
15.428198772866363

>  <path>  (231) 
/opt/xchem-fragalysis-2/maxwin/BulkDock/SCRATCH/511025/C77323-P52/C77323-P52.minimised.mol

>  <scratch_subdir>  (231) 
/opt/xchem-fragalysis-2/maxwin/BulkDock/SCRATCH/511025/C77323-P52

>  <fragmenstein_runtime>  (231) 
17.74565291404724

>  <fragmenstein_outcome>  (231) 
too moved

>  <fragmenstein_mode>  (231) 
expansion

>  <fragmenstein_error>  (231) 


$$$$
C77323-P76
     RDKit          3D

 41 43  0  0  0  0  0  0  0  0999 V2000
    5.9183   -7.1459   26.1397 C   0  0  0  0  0  0  0  0  0  0  0  0
    6.6328   -8.3613   26.7856 C   0  0  0  0  0  0  0  0  0  0  0  0
    7.9677   -7.7380   27.3179 C   0  0  0  0  0  0  0  0  0  0  0  0
    6.9937   -9.3072   25.7484 O   0  0  0  0  0  0  0  0  0  0  0  0
    7.7204   -8.9856   24.6168 C   0  0  0  0  0  0  0  0  0  0  0  0
    7.0517   -8.8781   23.3952 C   0  0  0  0  0  0  0  0  0  0  0  0
    7.7566   -8.9496   22.1867 C   0  0  0  0  0  0  0  0  0  0  0  0
    9.1413   -9.1090   22.1841 C   0  0  0  0  0  0  0  0  0  0  0  0
    9.8237   -9.1634   23.3947 C   0  0  0  0  0  0  0  0  0  0  0  0
    9.1126   -9.1214   24.6041 C   0  0  0  0  0  0  0  0  0  0  0  0
    5.7764   -8.9400   28.2055 C   0  0  0  0  0  0  0  0  0  0  0  0
    6.0662   -8.4726   29.3113 O   0  0  0  0  0  0  0  0  0  0  0  0
    4.7315   -9.9075   28.1412 O   0  0  0  0  0  0  0  0  0  0  0  0
    4.1012  -10.3723   29.5172 C   0  0  0  0  0  0  0  0  0  0  0  0
    2.7915  -11.4048   29.5671 C   0  0  0  0  0  0  0  0  0  0  0  0
    1.5124  -11.1144   29.8416 N   0  0  0  0  0  0  0  0  0  0  0  0
    0.8046  -12.3178   29.9982 C   0  0  0  0  0  0  0  0  0  0  0  0
   -0.5529  -12.5809   30.3111 C   0  0  0  0  0  0  0  0  0  0  0  0
   -1.0059  -13.9097   30.4420 C   0  0  0  0  0  0  0  0  0  0  0  0
   -0.1239  -14.9725   30.2577 C   0  0  0  0  0  0  0  0  0  0  0  0
    1.2257  -14.7350   29.9393 C   0  0  0  0  0  0  0  0  0  0  0  0
    1.6578  -13.3949   29.8218 C   0  0  0  0  0  0  0  0  0  0  0  0
    2.8900  -12.8068   29.5499 N   0  0  0  0  0  0  0  0  0  0  0  0
    6.6040   -6.5163   25.5606 H   0  0  0  0  0  0  0  0  0  0  0  0
    5.1570   -7.4728   25.4337 H   0  0  0  0  0  0  0  0  0  0  0  0
    5.4432   -6.5207   26.9023 H   0  0  0  0  0  0  0  0  0  0  0  0
    8.5451   -7.2271   26.5411 H   0  0  0  0  0  0  0  0  0  0  0  0
    8.6037   -8.5276   27.7341 H   0  0  0  0  0  0  0  0  0  0  0  0
    7.7760   -7.0105   28.1145 H   0  0  0  0  0  0  0  0  0  0  0  0
    5.9671   -8.8270   23.3668 H   0  0  0  0  0  0  0  0  0  0  0  0
    7.2156   -8.9052   21.2434 H   0  0  0  0  0  0  0  0  0  0  0  0
    9.6773   -9.1804   21.2418 H   0  0  0  0  0  0  0  0  0  0  0  0
   10.9026   -9.2984   23.4065 H   0  0  0  0  0  0  0  0  0  0  0  0
    9.6519   -9.2828   25.5339 H   0  0  0  0  0  0  0  0  0  0  0  0
    4.9152  -10.8747   30.0509 H   0  0  0  0  0  0  0  0  0  0  0  0
    3.8033   -9.4593   30.0402 H   0  0  0  0  0  0  0  0  0  0  0  0
   -1.2362  -11.7501   30.4485 H   0  0  0  0  0  0  0  0  0  0  0  0
   -2.0493  -14.1007   30.6804 H   0  0  0  0  0  0  0  0  0  0  0  0
   -0.4814  -15.9953   30.3538 H   0  0  0  0  0  0  0  0  0  0  0  0
    1.9133  -15.5617   29.7907 H   0  0  0  0  0  0  0  0  0  0  0  0
    3.7418  -13.3196   29.3791 H   0  0  0  0  0  0  0  0  0  0  0  0
  1  2  1  0
  2  3  1  0
  2  4  1  0
  4  5  1  0
  5  6  2  0
  6  7  1  0
  7  8  2  0
  8  9  1  0
  9 10  2  0
  2 11  1  0
 11 12  2  0
 11 13  1  0
 13 14  1  0
 14 15  1  0
 15 16  2  0
 16 17  1  0
 17 18  2  0
 18 19  1  0
 19 20  2  0
 20 21  1  0
 21 22  2  0
 22 23  1  0
 10  5  1  0
 23 15  1  0
 22 17  1  0
  1 24  1  0
  1 25  1  0
  1 26  1  0
  3 27  1  0
  3 28  1  0
  3 29  1  0
  6 30  1  0
  7 31  1  0
  8 32  1  0
  9 33  1  0
 10 34  1  0
 14 35  1  0
 14 36  1  0
 18 37  1  0
 19 38  1  0
 20 39  1  0
 21 40  1  0
 23 41  1  0
M  END
>  <Energy>  (232) 
120.53729111110397

>  <compound_id>  (232) 
77323

>  <target_id>  (232) 
1

>  <reference_id>  (232) 
76

>  <inspiration_ids>  (232) 
[52, 76]

>  <energy_score>  (232) 
29.615199476777832

>  <distance_score>  (232) 
15.722369903696833

>  <path>  (232) 
/opt/xchem-fragalysis-2/maxwin/BulkDock/SCRATCH/511025/C77323-P76/C77323-P76.minimised.mol

>  <scratch_subdir>  (232) 
/opt/xchem-fragalysis-2/maxwin/BulkDock/SCRATCH/511025/C77323-P76

>  <fragmenstein_runtime>  (232) 
12.883285999298096

>  <fragmenstein_outcome>  (232) 
too moved

>  <fragmenstein_mode>  (232) 
expansion

>  <fragmenstein_error>  (232) 


$$$$
C77329-P52
     RDKit          3D

 43 45  0  0  0  0  0  0  0  0999 V2000
   -1.1826  -25.7341   26.5859 C   0  0  0  0  0  0  0  0  0  0  0  0
   -1.3783  -24.7344   27.5976 N   0  0  0  0  0  0  0  0  0  0  0  0
   -2.1916  -24.8618   28.6690 C   0  0  0  0  0  0  0  0  0  0  0  0
   -2.2442  -23.7421   29.3404 N   0  0  0  0  0  0  0  0  0  0  0  0
   -1.3454  -22.8958   28.7994 C   0  0  0  0  0  0  0  0  0  0  0  0
   -1.0380  -21.5286   29.2246 C   0  0  0  0  0  0  0  0  0  0  0  0
   -0.4546  -20.5301   28.2221 C   0  0  0  0  0  0  0  0  0  0  0  0
   -0.6747  -18.6158   27.5430 C   0  0  0  0  0  0  0  0  0  0  0  0
   -0.3426  -18.3752   29.0288 N   0  0  0  0  0  0  0  0  0  0  0  0
    0.0484  -16.9845   26.1928 C   0  0  0  0  0  0  0  0  0  0  0  0
    2.0314  -16.0995   26.0954 C   0  0  0  0  0  0  0  0  0  0  0  0
    3.2649  -15.9863   24.6262 O   0  0  0  0  0  0  0  0  0  0  0  0
    4.2028  -14.7607   23.4414 C   0  0  0  0  0  0  0  0  0  0  0  0
    5.7277  -14.0135   22.9644 C   0  0  0  0  0  0  0  0  0  0  0  0
    5.8364  -12.5875   23.0811 C   0  0  0  0  0  0  0  0  0  0  0  0
    6.8976  -11.8341   22.5320 C   0  0  0  0  0  0  0  0  0  0  0  0
    7.8820  -12.4692   21.7928 C   0  0  0  0  0  0  0  0  0  0  0  0
    7.7773  -13.8439   21.5888 C   0  0  0  0  0  0  0  0  0  0  0  0
    6.7112  -14.5981   22.1423 C   0  0  0  0  0  0  0  0  0  0  0  0
    0.6570  -21.7234   27.6225 C   0  0  0  0  0  0  0  0  0  0  0  0
    0.2538  -22.9305   26.9526 C   0  0  0  0  0  0  0  0  0  0  0  0
   -0.7835  -23.5045   27.6688 C   0  0  0  0  0  0  0  0  0  0  0  0
   -0.1252  -26.0120   26.5732 H   0  0  0  0  0  0  0  0  0  0  0  0
   -1.7842  -26.6194   26.8084 H   0  0  0  0  0  0  0  0  0  0  0  0
   -1.4729  -25.3173   25.6179 H   0  0  0  0  0  0  0  0  0  0  0  0
   -2.7468  -25.7628   28.9007 H   0  0  0  0  0  0  0  0  0  0  0  0
   -1.5556  -21.2415   30.1401 H   0  0  0  0  0  0  0  0  0  0  0  0
    0.1011  -19.2075   27.1985 H   0  0  0  0  0  0  0  0  0  0  0  0
   -0.9636  -18.8920   29.6443 H   0  0  0  0  0  0  0  0  0  0  0  0
    0.0080  -17.4660   29.3087 H   0  0  0  0  0  0  0  0  0  0  0  0
   -0.3239  -16.2103   26.8997 H   0  0  0  0  0  0  0  0  0  0  0  0
   -0.7277  -16.7409   25.4911 H   0  0  0  0  0  0  0  0  0  0  0  0
    2.0664  -15.1406   26.6255 H   0  0  0  0  0  0  0  0  0  0  0  0
    2.8834  -16.6710   26.3987 H   0  0  0  0  0  0  0  0  0  0  0  0
    3.9795  -13.7527   23.8849 H   0  0  0  0  0  0  0  0  0  0  0  0
    3.6576  -15.0169   22.5834 H   0  0  0  0  0  0  0  0  0  0  0  0
    5.0481  -12.0303   23.5832 H   0  0  0  0  0  0  0  0  0  0  0  0
    6.9223  -10.7580   22.6730 H   0  0  0  0  0  0  0  0  0  0  0  0
    8.6985  -11.9071   21.3517 H   0  0  0  0  0  0  0  0  0  0  0  0
    8.5083  -14.3493   20.9609 H   0  0  0  0  0  0  0  0  0  0  0  0
    6.6307  -15.6352   21.8327 H   0  0  0  0  0  0  0  0  0  0  0  0
    0.9596  -22.3846   28.4832 H   0  0  0  0  0  0  0  0  0  0  0  0
    0.8508  -23.4429   26.2117 H   0  0  0  0  0  0  0  0  0  0  0  0
  1  2  1  0
  2  3  1  0
  3  4  2  0
  4  5  1  0
  5  6  2  0
  6  7  1  0
  7  8  1  0
  8  9  1  0
  8 10  1  0
 10 11  1  0
 11 12  1  0
 12 13  1  0
 13 14  1  0
 14 15  2  0
 15 16  1  0
 16 17  2  0
 17 18  1  0
 18 19  2  0
  7 20  2  0
 20 21  1  0
 21 22  2  0
 22  2  1  0
 22  5  1  0
 19 14  1  0
  1 23  1  0
  1 24  1  0
  1 25  1  0
  3 26  1  0
  6 27  1  0
  8 28  1  0
  9 29  1  0
  9 30  1  0
 10 31  1  0
 10 32  1  0
 11 33  1  0
 11 34  1  0
 13 35  1  0
 13 36  1  0
 15 37  1  0
 16 38  1  0
 17 39  1  0
 18 40  1  0
 19 41  1  0
 20 42  1  0
 21 43  1  0
M  END
>  <Energy>  (233) 
893.14633407996018

>  <compound_id>  (233) 
77329

>  <target_id>  (233) 
1

>  <reference_id>  (233) 
52

>  <inspiration_ids>  (233) 
[52, 76]

>  <energy_score>  (233) 
821.9187484481524

>  <distance_score>  (233) 
12.739752670164394

>  <path>  (233) 
/opt/xchem-fragalysis-2/maxwin/BulkDock/SCRATCH/511025/C77329-P52/C77329-P52.minimised.mol

>  <scratch_subdir>  (233) 
/opt/xchem-fragalysis-2/maxwin/BulkDock/SCRATCH/511025/C77329-P52

>  <fragmenstein_runtime>  (233) 
36.83325242996216

>  <fragmenstein_outcome>  (233) 
too moved

>  <fragmenstein_mode>  (233) 
expansion

>  <fragmenstein_error>  (233) 


$$$$
C77329-P76
     RDKit          3D

 43 45  0  0  0  0  0  0  0  0999 V2000
   -7.1172  -17.8367   34.2116 C   0  0  0  0  0  0  0  0  0  0  0  0
   -5.7955  -17.3679   33.8712 N   0  0  0  0  0  0  0  0  0  0  0  0
   -4.7026  -17.4758   34.6879 C   0  0  0  0  0  0  0  0  0  0  0  0
   -3.5860  -17.0296   34.1494 N   0  0  0  0  0  0  0  0  0  0  0  0
   -3.9210  -16.5997   32.8884 C   0  0  0  0  0  0  0  0  0  0  0  0
   -2.9258  -16.0435   31.6853 C   0  0  0  0  0  0  0  0  0  0  0  0
   -3.4232  -15.5200   30.0798 C   0  0  0  0  0  0  0  0  0  0  0  0
   -2.0150  -14.3481   29.1313 C   0  0  0  0  0  0  0  0  0  0  0  0
   -2.2663  -12.8253   29.5056 N   0  0  0  0  0  0  0  0  0  0  0  0
   -0.8790  -13.6904   27.5551 C   0  0  0  0  0  0  0  0  0  0  0  0
    0.7253  -12.8289   26.6031 C   0  0  0  0  0  0  0  0  0  0  0  0
    1.7933  -12.7538   25.0061 O   0  0  0  0  0  0  0  0  0  0  0  0
    2.5270  -11.7472   23.5617 C   0  0  0  0  0  0  0  0  0  0  0  0
    3.6981  -10.3213   22.6487 C   0  0  0  0  0  0  0  0  0  0  0  0
    3.2567   -9.1009   21.9021 C   0  0  0  0  0  0  0  0  0  0  0  0
    4.0779   -8.1291   21.2451 C   0  0  0  0  0  0  0  0  0  0  0  0
    5.4512   -8.2118   21.2822 C   0  0  0  0  0  0  0  0  0  0  0  0
    6.0011   -9.2260   22.0313 C   0  0  0  0  0  0  0  0  0  0  0  0
    5.1755  -10.1861   22.6984 C   0  0  0  0  0  0  0  0  0  0  0  0
   -5.2366  -15.9635   29.9926 C   0  0  0  0  0  0  0  0  0  0  0  0
   -6.1375  -16.4920   31.3420 C   0  0  0  0  0  0  0  0  0  0  0  0
   -5.4011  -16.7767   32.6971 C   0  0  0  0  0  0  0  0  0  0  0  0
   -7.2729  -17.6824   35.2836 H   0  0  0  0  0  0  0  0  0  0  0  0
   -7.1765  -18.9007   33.9878 H   0  0  0  0  0  0  0  0  0  0  0  0
   -7.8568  -17.2503   33.6703 H   0  0  0  0  0  0  0  0  0  0  0  0
   -4.7734  -17.9008   35.6807 H   0  0  0  0  0  0  0  0  0  0  0  0
   -1.9260  -15.8092   32.0673 H   0  0  0  0  0  0  0  0  0  0  0  0
   -1.1608  -14.6644   29.7562 H   0  0  0  0  0  0  0  0  0  0  0  0
   -3.2711  -12.7080   29.6860 H   0  0  0  0  0  0  0  0  0  0  0  0
   -2.1778  -12.2351   28.6791 H   0  0  0  0  0  0  0  0  0  0  0  0
   -0.4775  -12.9873   28.3057 H   0  0  0  0  0  0  0  0  0  0  0  0
   -1.6697  -13.2411   26.9344 H   0  0  0  0  0  0  0  0  0  0  0  0
    0.6743  -11.7750   26.8773 H   0  0  0  0  0  0  0  0  0  0  0  0
    1.4888  -13.3465   27.1951 H   0  0  0  0  0  0  0  0  0  0  0  0
    3.0901  -12.5953   23.1959 H   0  0  0  0  0  0  0  0  0  0  0  0
    1.5642  -11.6613   23.0919 H   0  0  0  0  0  0  0  0  0  0  0  0
    2.1982   -8.9170   21.6866 H   0  0  0  0  0  0  0  0  0  0  0  0
    3.5924   -7.3370   20.6794 H   0  0  0  0  0  0  0  0  0  0  0  0
    6.0661   -7.4896   20.7615 H   0  0  0  0  0  0  0  0  0  0  0  0
    7.0814   -9.2853   22.1467 H   0  0  0  0  0  0  0  0  0  0  0  0
    5.7981  -10.7561   23.3919 H   0  0  0  0  0  0  0  0  0  0  0  0
   -5.9944  -15.7599   29.2346 H   0  0  0  0  0  0  0  0  0  0  0  0
   -7.1218  -16.8851   31.2627 H   0  0  0  0  0  0  0  0  0  0  0  0
  1  2  1  0
  2  3  1  0
  3  4  2  0
  4  5  1  0
  5  6  2  0
  6  7  1  0
  7  8  1  0
  8  9  1  0
  8 10  1  0
 10 11  1  0
 11 12  1  0
 12 13  1  0
 13 14  1  0
 14 15  2  0
 15 16  1  0
 16 17  2  0
 17 18  1  0
 18 19  2  0
  7 20  2  0
 20 21  1  0
 21 22  2  0
 22  2  1  0
 22  5  1  0
 19 14  1  0
  1 23  1  0
  1 24  1  0
  1 25  1  0
  3 26  1  0
  6 27  1  0
  8 28  1  0
  9 29  1  0
  9 30  1  0
 10 31  1  0
 10 32  1  0
 11 33  1  0
 11 34  1  0
 13 35  1  0
 13 36  1  0
 15 37  1  0
 16 38  1  0
 17 39  1  0
 18 40  1  0
 19 41  1  0
 20 42  1  0
 21 43  1  0
M  END
>  <Energy>  (234) 
896.28076542381052

>  <compound_id>  (234) 
77329

>  <target_id>  (234) 
1

>  <reference_id>  (234) 
76

>  <inspiration_ids>  (234) 
[52, 76]

>  <energy_score>  (234) 
825.0531797920092

>  <distance_score>  (234) 
11.008379450198488

>  <path>  (234) 
/opt/xchem-fragalysis-2/maxwin/BulkDock/SCRATCH/511025/C77329-P76/C77329-P76.minimised.mol

>  <scratch_subdir>  (234) 
/opt/xchem-fragalysis-2/maxwin/BulkDock/SCRATCH/511025/C77329-P76

>  <fragmenstein_runtime>  (234) 
21.533692121505737

>  <fragmenstein_outcome>  (234) 
too moved

>  <fragmenstein_mode>  (234) 
expansion

>  <fragmenstein_error>  (234) 


$$$$
C77332-P52
     RDKit          3D

 46 50  0  0  0  0  0  0  0  0999 V2000
    5.5032   -7.9406   19.9207 O   0  0  0  0  0  0  0  0  0  0  0  0
    4.8276   -8.7809   20.5045 C   0  0  0  0  0  0  0  0  0  0  0  0
    3.2950   -8.7869   20.7663 C   0  0  0  0  0  0  0  0  0  0  0  0
    3.0416  -10.0594   21.6411 C   0  0  0  0  0  0  0  0  0  0  0  0
    1.6707  -10.7340   22.3153 C   0  0  0  0  0  0  0  0  0  0  0  0
    1.2646  -11.9033   23.1838 C   0  0  0  0  0  0  0  0  0  0  0  0
   -0.5398  -12.9809   23.5762 C   0  0  0  0  0  0  0  0  0  0  0  0
   -0.7638  -13.0269   22.3325 O   0  0  0  0  0  0  0  0  0  0  0  0
   -2.2598  -13.7118   24.7509 C   0  0  0  0  0  0  0  0  0  0  0  0
   -2.8502  -15.5408   26.5101 S   0  0  0  0  0  0  0  0  0  0  0  0
   -4.8272  -16.7468   27.3683 C   0  0  0  0  0  0  0  0  0  0  0  0
   -6.6176  -16.3468   27.5898 N   0  0  0  0  0  0  0  0  0  0  0  0
   -7.8884  -17.7884   27.7700 C   0  0  0  0  0  0  0  0  0  0  0  0
   -8.9938  -18.7098   28.1011 C   0  0  0  0  0  0  0  0  0  0  0  0
   -9.4649  -20.4489   28.1238 C   0  0  0  0  0  0  0  0  0  0  0  0
   -8.4129  -21.3799   28.1578 C   0  0  0  0  0  0  0  0  0  0  0  0
   -7.1641  -20.7719   27.7308 C   0  0  0  0  0  0  0  0  0  0  0  0
   -6.7743  -19.1348   27.3156 C   0  0  0  0  0  0  0  0  0  0  0  0
   -5.1260  -18.4967   26.9278 N   0  0  0  0  0  0  0  0  0  0  0  0
   -3.9776  -19.4655   26.9468 C   0  0  0  0  0  0  0  0  0  0  0  0
   -2.7913  -19.0738   27.5747 C   0  0  0  0  0  0  0  0  0  0  0  0
   -1.7656  -19.9912   27.8159 C   0  0  0  0  0  0  0  0  0  0  0  0
   -1.8762  -21.3057   27.3883 C   0  0  0  0  0  0  0  0  0  0  0  0
   -3.0088  -21.6958   26.7032 C   0  0  0  0  0  0  0  0  0  0  0  0
   -4.0488  -20.7886   26.4976 C   0  0  0  0  0  0  0  0  0  0  0  0
    2.8362  -12.3537   22.8118 C   0  0  0  0  0  0  0  0  0  0  0  0
    4.1874  -11.8528   22.2767 C   0  0  0  0  0  0  0  0  0  0  0  0
    4.2622  -10.6392   21.7228 C   0  0  0  0  0  0  0  0  0  0  0  0
    5.2967   -9.9422   21.1091 N   0  0  0  0  0  0  0  0  0  0  0  0
    3.0871   -7.8620   21.3068 H   0  0  0  0  0  0  0  0  0  0  0  0
    2.7695   -8.8284   19.8125 H   0  0  0  0  0  0  0  0  0  0  0  0
    0.7933  -10.4566   21.7206 H   0  0  0  0  0  0  0  0  0  0  0  0
   -2.8758  -14.2079   23.9962 H   0  0  0  0  0  0  0  0  0  0  0  0
   -2.6712  -12.8395   25.2263 H   0  0  0  0  0  0  0  0  0  0  0  0
   -9.8210  -19.0768   29.1032 H   0  0  0  0  0  0  0  0  0  0  0  0
  -10.4666  -20.7417   28.4600 H   0  0  0  0  0  0  0  0  0  0  0  0
   -8.6551  -22.3934   28.4059 H   0  0  0  0  0  0  0  0  0  0  0  0
   -6.2874  -21.4224   27.6700 H   0  0  0  0  0  0  0  0  0  0  0  0
   -2.6443  -18.0640   27.9458 H   0  0  0  0  0  0  0  0  0  0  0  0
   -0.8669  -19.6645   28.3349 H   0  0  0  0  0  0  0  0  0  0  0  0
   -1.0651  -22.0078   27.5597 H   0  0  0  0  0  0  0  0  0  0  0  0
   -3.0843  -22.7046   26.3098 H   0  0  0  0  0  0  0  0  0  0  0  0
   -4.8648  -21.2113   25.9446 H   0  0  0  0  0  0  0  0  0  0  0  0
    3.1206  -13.3818   22.8721 H   0  0  0  0  0  0  0  0  0  0  0  0
    5.0299  -12.5379   22.2741 H   0  0  0  0  0  0  0  0  0  0  0  0
    6.2539  -10.2516   21.0477 H   0  0  0  0  0  0  0  0  0  0  0  0
  1  2  2  0
  2  3  1  0
  3  4  1  0
  4  5  2  0
  5  6  1  0
  6  7  1  0
  7  8  2  0
  7  9  1  0
  9 10  1  0
 10 11  1  0
 11 12  2  0
 12 13  1  0
 13 14  2  0
 14 15  1  0
 15 16  2  0
 16 17  1  0
 17 18  2  0
 18 19  1  0
 19 20  1  0
 20 21  2  0
 21 22  1  0
 22 23  2  0
 23 24  1  0
 24 25  2  0
  6 26  2  0
 26 27  1  0
 27 28  2  0
 28 29  1  0
 29  2  1  0
 28  4  1  0
 19 11  1  0
 25 20  1  0
 18 13  1  0
  3 30  1  0
  3 31  1  0
  5 32  1  0
  9 33  1  0
  9 34  1  0
 14 35  1  0
 15 36  1  0
 16 37  1  0
 17 38  1  0
 21 39  1  0
 22 40  1  0
 23 41  1  0
 24 42  1  0
 25 43  1  0
 26 44  1  0
 27 45  1  0
 29 46  1  0
M  END
>  <Energy>  (235) 
1485.991897092922

>  <compound_id>  (235) 
77332

>  <target_id>  (235) 
1

>  <reference_id>  (235) 
52

>  <inspiration_ids>  (235) 
[52, 76]

>  <energy_score>  (235) 
1344.45771244387

>  <distance_score>  (235) 
12.468950431929084

>  <path>  (235) 
/opt/xchem-fragalysis-2/maxwin/BulkDock/SCRATCH/511025/C77332-P52/C77332-P52.minimised.mol

>  <scratch_subdir>  (235) 
/opt/xchem-fragalysis-2/maxwin/BulkDock/SCRATCH/511025/C77332-P52

>  <fragmenstein_runtime>  (235) 
25.510230779647827

>  <fragmenstein_outcome>  (235) 
too moved

>  <fragmenstein_mode>  (235) 
expansion

>  <fragmenstein_error>  (235) 


$$$$
C77332-P76
     RDKit          3D

 46 50  0  0  0  0  0  0  0  0999 V2000
    0.5155   -7.3927   17.4497 O   0  0  0  0  0  0  0  0  0  0  0  0
   -0.3234   -7.9758   18.1308 C   0  0  0  0  0  0  0  0  0  0  0  0
   -1.4144   -9.0116   17.6858 C   0  0  0  0  0  0  0  0  0  0  0  0
   -2.0412   -9.4856   19.0103 C   0  0  0  0  0  0  0  0  0  0  0  0
   -2.9522  -10.5736   19.3449 C   0  0  0  0  0  0  0  0  0  0  0  0
   -3.6132  -10.7596   20.6648 C   0  0  0  0  0  0  0  0  0  0  0  0
   -5.2772  -11.6816   20.7681 C   0  0  0  0  0  0  0  0  0  0  0  0
   -4.9663  -12.2104   19.6196 O   0  0  0  0  0  0  0  0  0  0  0  0
   -6.9822  -12.3460   21.9333 C   0  0  0  0  0  0  0  0  0  0  0  0
   -9.3995  -13.4723   21.3405 S   0  0  0  0  0  0  0  0  0  0  0  0
  -10.8062  -15.1231   22.7280 C   0  0  0  0  0  0  0  0  0  0  0  0
  -10.9568  -15.5176   24.3813 N   0  0  0  0  0  0  0  0  0  0  0  0
  -10.3267  -16.8740   25.4654 C   0  0  0  0  0  0  0  0  0  0  0  0
  -10.9050  -17.2971   27.2121 C   0  0  0  0  0  0  0  0  0  0  0  0
  -12.0847  -18.6213   28.0992 C   0  0  0  0  0  0  0  0  0  0  0  0
  -12.1084  -20.4390   27.0233 C   0  0  0  0  0  0  0  0  0  0  0  0
  -11.7203  -19.9749   25.0771 C   0  0  0  0  0  0  0  0  0  0  0  0
  -11.5139  -17.9013   24.6982 C   0  0  0  0  0  0  0  0  0  0  0  0
  -10.5865  -16.9030   23.3702 N   0  0  0  0  0  0  0  0  0  0  0  0
   -9.8780  -18.0738   22.5258 C   0  0  0  0  0  0  0  0  0  0  0  0
   -9.5925  -17.0819   21.0733 C   0  0  0  0  0  0  0  0  0  0  0  0
  -10.2608  -17.6710   19.6958 C   0  0  0  0  0  0  0  0  0  0  0  0
  -11.0030  -19.1538   19.6133 C   0  0  0  0  0  0  0  0  0  0  0  0
  -11.2272  -20.2650   20.8283 C   0  0  0  0  0  0  0  0  0  0  0  0
  -10.7882  -19.8554   22.4018 C   0  0  0  0  0  0  0  0  0  0  0  0
   -2.9758   -9.8439   21.5771 C   0  0  0  0  0  0  0  0  0  0  0  0
   -1.8752   -8.9400   21.3035 C   0  0  0  0  0  0  0  0  0  0  0  0
   -1.4812   -8.7096   20.0082 C   0  0  0  0  0  0  0  0  0  0  0  0
   -0.5033   -7.8306   19.5064 N   0  0  0  0  0  0  0  0  0  0  0  0
   -2.1672   -8.5011   17.0790 H   0  0  0  0  0  0  0  0  0  0  0  0
   -0.9538   -9.8368   17.1388 H   0  0  0  0  0  0  0  0  0  0  0  0
   -3.2774  -11.1955   18.5090 H   0  0  0  0  0  0  0  0  0  0  0  0
   -7.2584  -11.5852   22.7177 H   0  0  0  0  0  0  0  0  0  0  0  0
   -6.4364  -12.8796   22.7394 H   0  0  0  0  0  0  0  0  0  0  0  0
  -11.1055  -16.2097   27.4365 H   0  0  0  0  0  0  0  0  0  0  0  0
  -12.5109  -18.3494   29.0100 H   0  0  0  0  0  0  0  0  0  0  0  0
  -12.1557  -21.4411   27.4691 H   0  0  0  0  0  0  0  0  0  0  0  0
  -12.2071  -20.5874   24.3006 H   0  0  0  0  0  0  0  0  0  0  0  0
   -8.6663  -16.5191   20.9659 H   0  0  0  0  0  0  0  0  0  0  0  0
  -10.0114  -17.1842   18.7507 H   0  0  0  0  0  0  0  0  0  0  0  0
  -11.2095  -19.5242   18.6037 H   0  0  0  0  0  0  0  0  0  0  0  0
  -11.3197  -21.3194   20.5627 H   0  0  0  0  0  0  0  0  0  0  0  0
  -10.5992  -20.6575   23.1148 H   0  0  0  0  0  0  0  0  0  0  0  0
   -3.4469   -9.6488   22.5358 H   0  0  0  0  0  0  0  0  0  0  0  0
   -1.4596   -8.3658   22.1237 H   0  0  0  0  0  0  0  0  0  0  0  0
    0.1655   -7.3340   20.0708 H   0  0  0  0  0  0  0  0  0  0  0  0
  1  2  2  0
  2  3  1  0
  3  4  1  0
  4  5  2  0
  5  6  1  0
  6  7  1  0
  7  8  2  0
  7  9  1  0
  9 10  1  0
 10 11  1  0
 11 12  2  0
 12 13  1  0
 13 14  2  0
 14 15  1  0
 15 16  2  0
 16 17  1  0
 17 18  2  0
 18 19  1  0
 19 20  1  0
 20 21  2  0
 21 22  1  0
 22 23  2  0
 23 24  1  0
 24 25  2  0
  6 26  2  0
 26 27  1  0
 27 28  2  0
 28 29  1  0
 29  2  1  0
 28  4  1  0
 19 11  1  0
 25 20  1  0
 18 13  1  0
  3 30  1  0
  3 31  1  0
  5 32  1  0
  9 33  1  0
  9 34  1  0
 14 35  1  0
 15 36  1  0
 16 37  1  0
 17 38  1  0
 21 39  1  0
 22 40  1  0
 23 41  1  0
 24 42  1  0
 25 43  1  0
 26 44  1  0
 27 45  1  0
 29 46  1  0
M  END
>  <Energy>  (236) 
2330.9676658941139

>  <compound_id>  (236) 
77332

>  <target_id>  (236) 
1

>  <reference_id>  (236) 
76

>  <inspiration_ids>  (236) 
[52, 76]

>  <energy_score>  (236) 
2189.4334812450243

>  <distance_score>  (236) 
13.979643878222989

>  <path>  (236) 
/opt/xchem-fragalysis-2/maxwin/BulkDock/SCRATCH/511025/C77332-P76/C77332-P76.minimised.mol

>  <scratch_subdir>  (236) 
/opt/xchem-fragalysis-2/maxwin/BulkDock/SCRATCH/511025/C77332-P76

>  <fragmenstein_runtime>  (236) 
20.24528431892395

>  <fragmenstein_outcome>  (236) 
too moved

>  <fragmenstein_mode>  (236) 
expansion

>  <fragmenstein_error>  (236) 


$$$$
C77334-P52
     RDKit          3D

 48 50  0  0  0  0  0  0  0  0999 V2000
    0.3224   -9.8055   25.4455 C   0  0  0  0  0  0  0  0  0  0  0  0
    0.5547  -11.5568   25.1038 C   0  0  0  0  0  0  0  0  0  0  0  0
    1.7971  -12.1936   25.7548 C   0  0  0  0  0  0  0  0  0  0  0  0
    0.1138  -12.7807   23.6825 C   0  0  0  0  0  0  0  0  0  0  0  0
   -1.8209  -13.5129   24.2362 C   0  0  0  0  0  0  0  0  0  0  0  0
   -2.8737  -15.0647   24.9676 N   0  0  0  0  0  0  0  0  0  0  0  0
   -3.6319  -15.8149   26.6767 C   0  0  0  0  0  0  0  0  0  0  0  0
   -5.2310  -17.1603   27.0948 C   0  0  0  0  0  0  0  0  0  0  0  0
   -5.4530  -18.6614   26.2208 C   0  0  0  0  0  0  0  0  0  0  0  0
   -5.8614  -19.9679   26.5999 C   0  0  0  0  0  0  0  0  0  0  0  0
   -6.9847  -19.8430   27.3169 C   0  0  0  0  0  0  0  0  0  0  0  0
   -7.2755  -18.3146   27.8283 C   0  0  0  0  0  0  0  0  0  0  0  0
   -6.4123  -17.1112   27.8614 C   0  0  0  0  0  0  0  0  0  0  0  0
   -8.7013  -18.3636   28.1464 N   0  0  0  0  0  0  0  0  0  0  0  0
   -9.2118  -19.8626   27.7973 C   0  0  0  0  0  0  0  0  0  0  0  0
   -7.9737  -20.7573   27.8060 N   0  0  0  0  0  0  0  0  0  0  0  0
   -8.5783  -22.0720   28.1030 C   0  0  0  0  0  0  0  0  0  0  0  0
    1.6417  -11.5585   22.9814 C   0  0  0  0  0  0  0  0  0  0  0  0
    1.5302  -10.1930   22.3369 C   0  0  0  0  0  0  0  0  0  0  0  0
    2.5706   -9.5052   21.6240 C   0  0  0  0  0  0  0  0  0  0  0  0
    3.8170  -10.0783   21.4299 C   0  0  0  0  0  0  0  0  0  0  0  0
    4.0327  -11.3548   21.9251 C   0  0  0  0  0  0  0  0  0  0  0  0
    3.0107  -12.0789   22.6336 C   0  0  0  0  0  0  0  0  0  0  0  0
    0.5373   -9.5517   26.4853 H   0  0  0  0  0  0  0  0  0  0  0  0
   -0.5508   -9.2970   25.0696 H   0  0  0  0  0  0  0  0  0  0  0  0
    0.9728   -9.1224   24.8862 H   0  0  0  0  0  0  0  0  0  0  0  0
    1.0725  -10.9317   24.4989 H   0  0  0  0  0  0  0  0  0  0  0  0
    1.5448  -12.9623   26.5166 H   0  0  0  0  0  0  0  0  0  0  0  0
    2.2206  -11.4858   26.3406 H   0  0  0  0  0  0  0  0  0  0  0  0
    2.7743  -12.3485   25.2485 H   0  0  0  0  0  0  0  0  0  0  0  0
   -0.3094  -12.7390   22.6439 H   0  0  0  0  0  0  0  0  0  0  0  0
   -1.9723  -14.0149   23.3039 H   0  0  0  0  0  0  0  0  0  0  0  0
   -2.3978  -12.6970   24.6677 H   0  0  0  0  0  0  0  0  0  0  0  0
   -3.6625  -14.9642   24.3318 H   0  0  0  0  0  0  0  0  0  0  0  0
   -2.7235  -16.4094   26.7984 H   0  0  0  0  0  0  0  0  0  0  0  0
   -3.5897  -15.0201   27.4198 H   0  0  0  0  0  0  0  0  0  0  0  0
   -4.8704  -18.8398   25.2950 H   0  0  0  0  0  0  0  0  0  0  0  0
   -5.5760  -20.8825   26.1030 H   0  0  0  0  0  0  0  0  0  0  0  0
   -6.7698  -16.2617   28.4294 H   0  0  0  0  0  0  0  0  0  0  0  0
  -10.1628  -20.3161   28.1127 H   0  0  0  0  0  0  0  0  0  0  0  0
   -9.6457  -21.9980   28.3658 H   0  0  0  0  0  0  0  0  0  0  0  0
   -8.6744  -22.6927   27.2118 H   0  0  0  0  0  0  0  0  0  0  0  0
   -8.2884  -22.5690   29.0050 H   0  0  0  0  0  0  0  0  0  0  0  0
    0.6352   -9.5971   22.3608 H   0  0  0  0  0  0  0  0  0  0  0  0
    2.3678   -8.5137   21.2243 H   0  0  0  0  0  0  0  0  0  0  0  0
    4.5960   -9.5571   20.8851 H   0  0  0  0  0  0  0  0  0  0  0  0
    4.9881  -11.8471   21.7484 H   0  0  0  0  0  0  0  0  0  0  0  0
    3.3219  -13.0885   22.8600 H   0  0  0  0  0  0  0  0  0  0  0  0
  1  2  1  0
  2  3  1  0
  2  4  1  0
  4  5  1  0
  5  6  1  0
  6  7  1  0
  7  8  1  0
  8  9  2  0
  9 10  1  0
 10 11  2  0
 11 12  1  0
 12 13  2  0
 12 14  1  0
 14 15  2  0
 15 16  1  0
 16 17  1  0
  4 18  1  0
 18 19  2  0
 19 20  1  0
 20 21  2  0
 21 22  1  0
 22 23  2  0
 13  8  1  0
 23 18  1  0
 16 11  1  0
  1 24  1  0
  1 25  1  0
  1 26  1  0
  2 27  1  0
  3 28  1  0
  3 29  1  0
  3 30  1  0
  4 31  1  0
  5 32  1  0
  5 33  1  0
  6 34  1  0
  7 35  1  0
  7 36  1  0
  9 37  1  0
 10 38  1  0
 13 39  1  0
 15 40  1  0
 17 41  1  0
 17 42  1  0
 17 43  1  0
 19 44  1  0
 20 45  1  0
 21 46  1  0
 22 47  1  0
 23 48  1  0
M  END
>  <Energy>  (237) 
1045.9741575428973

>  <compound_id>  (237) 
77334

>  <target_id>  (237) 
1

>  <reference_id>  (237) 
52

>  <inspiration_ids>  (237) 
[52, 76]

>  <energy_score>  (237) 
960.0759249938908

>  <distance_score>  (237) 
11.500654796193116

>  <path>  (237) 
/opt/xchem-fragalysis-2/maxwin/BulkDock/SCRATCH/511025/C77334-P52/C77334-P52.minimised.mol

>  <scratch_subdir>  (237) 
/opt/xchem-fragalysis-2/maxwin/BulkDock/SCRATCH/511025/C77334-P52

>  <fragmenstein_runtime>  (237) 
28.264007091522217

>  <fragmenstein_outcome>  (237) 
too moved

>  <fragmenstein_mode>  (237) 
expansion

>  <fragmenstein_error>  (237) 


$$$$
C77334-P76
     RDKit          3D

 48 50  0  0  0  0  0  0  0  0999 V2000
    3.4615   -8.8441   21.1255 C   0  0  0  0  0  0  0  0  0  0  0  0
    3.9500  -10.0016   22.0405 C   0  0  0  0  0  0  0  0  0  0  0  0
    5.4783   -9.8708   22.1781 C   0  0  0  0  0  0  0  0  0  0  0  0
    3.1671  -11.4753   21.9040 C   0  0  0  0  0  0  0  0  0  0  0  0
    2.4672  -12.4322   23.5002 C   0  0  0  0  0  0  0  0  0  0  0  0
    1.1398  -13.7730   23.8813 N   0  0  0  0  0  0  0  0  0  0  0  0
   -0.6270  -14.2388   24.2446 C   0  0  0  0  0  0  0  0  0  0  0  0
   -1.9841  -14.4746   25.5157 C   0  0  0  0  0  0  0  0  0  0  0  0
   -1.8104  -13.9588   26.8656 C   0  0  0  0  0  0  0  0  0  0  0  0
   -1.6811  -15.0171   27.7826 C   0  0  0  0  0  0  0  0  0  0  0  0
   -2.1397  -16.7283   27.3372 C   0  0  0  0  0  0  0  0  0  0  0  0
   -2.7711  -16.8120   26.1589 C   0  0  0  0  0  0  0  0  0  0  0  0
   -2.6365  -15.6973   25.1279 C   0  0  0  0  0  0  0  0  0  0  0  0
   -3.0581  -16.4045   27.6397 N   0  0  0  0  0  0  0  0  0  0  0  0
   -3.9059  -16.2899   28.5786 C   0  0  0  0  0  0  0  0  0  0  0  0
   -3.8991  -17.1288   27.4530 N   0  0  0  0  0  0  0  0  0  0  0  0
   -5.3553  -18.1945   27.3651 C   0  0  0  0  0  0  0  0  0  0  0  0
    3.8431  -11.7636   20.3965 C   0  0  0  0  0  0  0  0  0  0  0  0
    3.2868  -11.0564   19.2848 C   0  0  0  0  0  0  0  0  0  0  0  0
    3.9908  -10.7672   18.0928 C   0  0  0  0  0  0  0  0  0  0  0  0
    5.2992  -11.1869   17.9298 C   0  0  0  0  0  0  0  0  0  0  0  0
    5.8639  -11.9478   18.9371 C   0  0  0  0  0  0  0  0  0  0  0  0
    5.1414  -12.2405   20.1236 C   0  0  0  0  0  0  0  0  0  0  0  0
    3.6185   -7.8823   21.6316 H   0  0  0  0  0  0  0  0  0  0  0  0
    2.3900   -8.9087   20.9152 H   0  0  0  0  0  0  0  0  0  0  0  0
    4.0246   -8.7793   20.1913 H   0  0  0  0  0  0  0  0  0  0  0  0
    3.5970   -9.6283   22.9415 H   0  0  0  0  0  0  0  0  0  0  0  0
    6.0199  -10.1314   21.2689 H   0  0  0  0  0  0  0  0  0  0  0  0
    5.8850  -10.4331   23.0189 H   0  0  0  0  0  0  0  0  0  0  0  0
    5.7389   -8.8245   22.3868 H   0  0  0  0  0  0  0  0  0  0  0  0
    2.1838  -11.1130   21.5938 H   0  0  0  0  0  0  0  0  0  0  0  0
    2.0610  -11.7474   24.1860 H   0  0  0  0  0  0  0  0  0  0  0  0
    3.2672  -13.0230   23.8993 H   0  0  0  0  0  0  0  0  0  0  0  0
    1.5432  -14.5355   23.3564 H   0  0  0  0  0  0  0  0  0  0  0  0
   -1.0879  -13.4824   24.8394 H   0  0  0  0  0  0  0  0  0  0  0  0
   -1.0404  -14.5851   23.3107 H   0  0  0  0  0  0  0  0  0  0  0  0
   -1.3099  -13.0161   27.0655 H   0  0  0  0  0  0  0  0  0  0  0  0
   -1.1143  -14.9027   28.7088 H   0  0  0  0  0  0  0  0  0  0  0  0
   -3.0581  -15.6612   24.1500 H   0  0  0  0  0  0  0  0  0  0  0  0
   -4.8380  -16.4123   29.1681 H   0  0  0  0  0  0  0  0  0  0  0  0
   -6.3346  -17.7211   27.6484 H   0  0  0  0  0  0  0  0  0  0  0  0
   -4.8302  -18.8285   27.8594 H   0  0  0  0  0  0  0  0  0  0  0  0
   -5.6584  -18.9819   26.5942 H   0  0  0  0  0  0  0  0  0  0  0  0
    2.2904  -10.6226   19.3711 H   0  0  0  0  0  0  0  0  0  0  0  0
    3.4991  -10.1970   17.3092 H   0  0  0  0  0  0  0  0  0  0  0  0
    5.8444  -10.9780   17.0156 H   0  0  0  0  0  0  0  0  0  0  0  0
    6.8663  -12.3507   18.8146 H   0  0  0  0  0  0  0  0  0  0  0  0
    5.6757  -12.8726   20.8062 H   0  0  0  0  0  0  0  0  0  0  0  0
  1  2  1  0
  2  3  1  0
  2  4  1  0
  4  5  1  0
  5  6  1  0
  6  7  1  0
  7  8  1  0
  8  9  2  0
  9 10  1  0
 10 11  2  0
 11 12  1  0
 12 13  2  0
 12 14  1  0
 14 15  2  0
 15 16  1  0
 16 17  1  0
  4 18  1  0
 18 19  2  0
 19 20  1  0
 20 21  2  0
 21 22  1  0
 22 23  2  0
 13  8  1  0
 23 18  1  0
 16 11  1  0
  1 24  1  0
  1 25  1  0
  1 26  1  0
  2 27  1  0
  3 28  1  0
  3 29  1  0
  3 30  1  0
  4 31  1  0
  5 32  1  0
  5 33  1  0
  6 34  1  0
  7 35  1  0
  7 36  1  0
  9 37  1  0
 10 38  1  0
 13 39  1  0
 15 40  1  0
 17 41  1  0
 17 42  1  0
 17 43  1  0
 19 44  1  0
 20 45  1  0
 21 46  1  0
 22 47  1  0
 23 48  1  0
M  END
>  <Energy>  (238) 
1177.5812501701846

>  <compound_id>  (238) 
77334

>  <target_id>  (238) 
1

>  <reference_id>  (238) 
76

>  <inspiration_ids>  (238) 
[52, 76]

>  <energy_score>  (238) 
1091.6830176211902

>  <distance_score>  (238) 
12.452958920892312

>  <path>  (238) 
/opt/xchem-fragalysis-2/maxwin/BulkDock/SCRATCH/511025/C77334-P76/C77334-P76.minimised.mol

>  <scratch_subdir>  (238) 
/opt/xchem-fragalysis-2/maxwin/BulkDock/SCRATCH/511025/C77334-P76

>  <fragmenstein_runtime>  (238) 
18.018527030944824

>  <fragmenstein_outcome>  (238) 
too moved

>  <fragmenstein_mode>  (238) 
expansion

>  <fragmenstein_error>  (238) 


$$$$
C77335-P52
     RDKit          3D

 43 45  0  0  0  0  0  0  0  0999 V2000
    5.9142  -12.2989   26.6181 C   0  0  0  0  0  0  0  0  0  0  0  0
    5.0898  -12.4521   25.3299 C   0  0  0  0  0  0  0  0  0  0  0  0
    5.7608  -13.2774   24.1525 C   0  0  0  0  0  0  0  0  0  0  0  0
    7.0838  -12.2102   23.5891 C   0  0  0  0  0  0  0  0  0  0  0  0
    6.9552  -10.7861   23.5414 C   0  0  0  0  0  0  0  0  0  0  0  0
    7.9904   -9.9219   23.1237 C   0  0  0  0  0  0  0  0  0  0  0  0
    9.2317  -10.4291   22.7780 C   0  0  0  0  0  0  0  0  0  0  0  0
    9.4348  -11.7983   22.8679 C   0  0  0  0  0  0  0  0  0  0  0  0
    8.3987  -12.6661   23.2933 C   0  0  0  0  0  0  0  0  0  0  0  0
    4.7513  -15.0133   23.7644 C   0  0  0  0  0  0  0  0  0  0  0  0
    6.2921  -15.1114   22.8876 N   0  0  0  0  0  0  0  0  0  0  0  0
    3.8561  -16.8947   24.5044 C   0  0  0  0  0  0  0  0  0  0  0  0
    2.6688  -16.8582   24.3782 O   0  0  0  0  0  0  0  0  0  0  0  0
    4.9498  -18.1889   25.3155 N   0  0  0  0  0  0  0  0  0  0  0  0
    4.6156  -19.5603   26.1677 C   0  0  0  0  0  0  0  0  0  0  0  0
    5.8244  -19.5944   27.0076 C   0  0  0  0  0  0  0  0  0  0  0  0
    6.0895  -20.2445   28.2449 C   0  0  0  0  0  0  0  0  0  0  0  0
    5.1449  -21.0289   28.8462 C   0  0  0  0  0  0  0  0  0  0  0  0
    4.1063  -21.3254   27.9975 C   0  0  0  0  0  0  0  0  0  0  0  0
    3.0957  -22.2388   28.2316 N   0  0  0  0  0  0  0  0  0  0  0  0
    2.6380  -22.5822   27.0199 C   0  0  0  0  0  0  0  0  0  0  0  0
    3.1463  -21.7641   26.1311 N   0  0  0  0  0  0  0  0  0  0  0  0
    3.9337  -20.7863   26.6803 C   0  0  0  0  0  0  0  0  0  0  0  0
    6.8969  -11.8621   26.4175 H   0  0  0  0  0  0  0  0  0  0  0  0
    5.3907  -11.6312   27.3108 H   0  0  0  0  0  0  0  0  0  0  0  0
    6.0660  -13.2489   27.1351 H   0  0  0  0  0  0  0  0  0  0  0  0
    4.9743  -11.4484   24.9812 H   0  0  0  0  0  0  0  0  0  0  0  0
    4.1118  -12.8579   25.5807 H   0  0  0  0  0  0  0  0  0  0  0  0
    6.6635  -13.6806   24.6816 H   0  0  0  0  0  0  0  0  0  0  0  0
    6.0240  -10.2917   23.8036 H   0  0  0  0  0  0  0  0  0  0  0  0
    7.8085   -8.8514   23.0907 H   0  0  0  0  0  0  0  0  0  0  0  0
   10.0383   -9.7717   22.4702 H   0  0  0  0  0  0  0  0  0  0  0  0
   10.4130  -12.2135   22.6345 H   0  0  0  0  0  0  0  0  0  0  0  0
    8.6797  -13.7092   23.3941 H   0  0  0  0  0  0  0  0  0  0  0  0
    4.0774  -14.6519   22.9879 H   0  0  0  0  0  0  0  0  0  0  0  0
    7.0893  -14.6508   23.2706 H   0  0  0  0  0  0  0  0  0  0  0  0
    6.5505  -15.9355   22.3365 H   0  0  0  0  0  0  0  0  0  0  0  0
    5.8686  -17.9960   25.2009 H   0  0  0  0  0  0  0  0  0  0  0  0
    6.6586  -18.9462   26.7316 H   0  0  0  0  0  0  0  0  0  0  0  0
    7.0367  -20.0562   28.7470 H   0  0  0  0  0  0  0  0  0  0  0  0
    5.2884  -21.4937   29.8125 H   0  0  0  0  0  0  0  0  0  0  0  0
    2.9652  -22.7616   29.0845 H   0  0  0  0  0  0  0  0  0  0  0  0
    1.9769  -23.4121   26.8123 H   0  0  0  0  0  0  0  0  0  0  0  0
  1  2  1  0
  2  3  1  0
  3  4  1  0
  4  5  2  0
  5  6  1  0
  6  7  2  0
  7  8  1  0
  8  9  2  0
  3 10  1  0
 10 11  1  0
 10 12  1  0
 12 13  2  0
 12 14  1  0
 14 15  1  0
 15 16  2  0
 16 17  1  0
 17 18  2  0
 18 19  1  0
 19 20  1  0
 20 21  1  0
 21 22  2  0
 22 23  1  0
  9  4  1  0
 23 15  1  0
 23 19  2  0
  1 24  1  0
  1 25  1  0
  1 26  1  0
  2 27  1  0
  2 28  1  0
  3 29  1  0
  5 30  1  0
  6 31  1  0
  7 32  1  0
  8 33  1  0
  9 34  1  0
 10 35  1  0
 11 36  1  0
 11 37  1  0
 14 38  1  0
 16 39  1  0
 17 40  1  0
 18 41  1  0
 20 42  1  0
 21 43  1  0
M  END
>  <Energy>  (239) 
621.97941857034652

>  <compound_id>  (239) 
77335

>  <target_id>  (239) 
1

>  <reference_id>  (239) 
52

>  <inspiration_ids>  (239) 
[52, 76]

>  <energy_score>  (239) 
481.87222539429104

>  <distance_score>  (239) 
15.255572597103237

>  <path>  (239) 
/opt/xchem-fragalysis-2/maxwin/BulkDock/SCRATCH/511025/C77335-P52/C77335-P52.minimised.mol

>  <scratch_subdir>  (239) 
/opt/xchem-fragalysis-2/maxwin/BulkDock/SCRATCH/511025/C77335-P52

>  <fragmenstein_runtime>  (239) 
22.41492462158203

>  <fragmenstein_outcome>  (239) 
too moved

>  <fragmenstein_mode>  (239) 
expansion

>  <fragmenstein_error>  (239) 


$$$$
C77335-P76
     RDKit          3D

 43 45  0  0  0  0  0  0  0  0999 V2000
   -2.9325   -7.9754   20.5438 C   0  0  0  0  0  0  0  0  0  0  0  0
   -2.3657   -9.3574   20.2254 C   0  0  0  0  0  0  0  0  0  0  0  0
   -1.1354   -9.7747   21.1205 C   0  0  0  0  0  0  0  0  0  0  0  0
    0.0466   -8.5997   20.8775 C   0  0  0  0  0  0  0  0  0  0  0  0
    0.6183   -7.8806   21.9358 C   0  0  0  0  0  0  0  0  0  0  0  0
    1.6659   -6.9329   21.7732 C   0  0  0  0  0  0  0  0  0  0  0  0
    2.1263   -6.5761   20.5138 C   0  0  0  0  0  0  0  0  0  0  0  0
    1.4691   -7.1078   19.4212 C   0  0  0  0  0  0  0  0  0  0  0  0
    0.4244   -8.0479   19.6118 C   0  0  0  0  0  0  0  0  0  0  0  0
   -1.3748  -11.6363   21.4094 C   0  0  0  0  0  0  0  0  0  0  0  0
   -0.2428  -12.6318   22.6687 N   0  0  0  0  0  0  0  0  0  0  0  0
   -2.0721  -12.8640   20.2631 C   0  0  0  0  0  0  0  0  0  0  0  0
   -2.4005  -12.3098   19.1976 O   0  0  0  0  0  0  0  0  0  0  0  0
   -2.0983  -14.6656   20.6919 N   0  0  0  0  0  0  0  0  0  0  0  0
   -2.5269  -16.0627   19.7365 C   0  0  0  0  0  0  0  0  0  0  0  0
   -3.4653  -16.8174   20.3953 C   0  0  0  0  0  0  0  0  0  0  0  0
   -4.7126  -17.7333   19.8029 C   0  0  0  0  0  0  0  0  0  0  0  0
   -4.6930  -18.1670   18.5652 C   0  0  0  0  0  0  0  0  0  0  0  0
   -3.3544  -18.3190   18.6094 C   0  0  0  0  0  0  0  0  0  0  0  0
   -2.7346  -19.4253   18.1483 N   0  0  0  0  0  0  0  0  0  0  0  0
   -1.4527  -19.1103   18.2473 C   0  0  0  0  0  0  0  0  0  0  0  0
   -1.1852  -18.1908   19.1581 N   0  0  0  0  0  0  0  0  0  0  0  0
   -2.3114  -17.4428   19.2924 C   0  0  0  0  0  0  0  0  0  0  0  0
   -3.8403   -7.8029   19.9561 H   0  0  0  0  0  0  0  0  0  0  0  0
   -3.1997   -7.8973   21.6025 H   0  0  0  0  0  0  0  0  0  0  0  0
   -2.2320   -7.1720   20.3030 H   0  0  0  0  0  0  0  0  0  0  0  0
   -2.1066   -9.4101   19.1630 H   0  0  0  0  0  0  0  0  0  0  0  0
   -3.1927  -10.0610   20.3650 H   0  0  0  0  0  0  0  0  0  0  0  0
   -1.4333   -9.4532   22.1253 H   0  0  0  0  0  0  0  0  0  0  0  0
    0.2619   -8.0521   22.9430 H   0  0  0  0  0  0  0  0  0  0  0  0
    2.1039   -6.4795   22.6574 H   0  0  0  0  0  0  0  0  0  0  0  0
    2.9319   -5.8626   20.3916 H   0  0  0  0  0  0  0  0  0  0  0  0
    1.7378   -6.8091   18.4130 H   0  0  0  0  0  0  0  0  0  0  0  0
   -0.0872   -8.3761   18.7079 H   0  0  0  0  0  0  0  0  0  0  0  0
   -2.4032  -11.4175   21.6642 H   0  0  0  0  0  0  0  0  0  0  0  0
   -0.5454  -13.0784   23.5376 H   0  0  0  0  0  0  0  0  0  0  0  0
   -0.1269  -13.6065   22.2975 H   0  0  0  0  0  0  0  0  0  0  0  0
   -1.8192  -14.8020   21.6528 H   0  0  0  0  0  0  0  0  0  0  0  0
   -3.8288  -16.4566   21.3644 H   0  0  0  0  0  0  0  0  0  0  0  0
   -5.6013  -17.8655   20.4330 H   0  0  0  0  0  0  0  0  0  0  0  0
   -5.4227  -18.8074   18.1007 H   0  0  0  0  0  0  0  0  0  0  0  0
   -3.1424  -20.1518   17.5770 H   0  0  0  0  0  0  0  0  0  0  0  0
   -0.7625  -19.5931   17.5736 H   0  0  0  0  0  0  0  0  0  0  0  0
  1  2  1  0
  2  3  1  0
  3  4  1  0
  4  5  2  0
  5  6  1  0
  6  7  2  0
  7  8  1  0
  8  9  2  0
  3 10  1  0
 10 11  1  0
 10 12  1  0
 12 13  2  0
 12 14  1  0
 14 15  1  0
 15 16  2  0
 16 17  1  0
 17 18  2  0
 18 19  1  0
 19 20  1  0
 20 21  1  0
 21 22  2  0
 22 23  1  0
  9  4  1  0
 23 15  1  0
 23 19  2  0
  1 24  1  0
  1 25  1  0
  1 26  1  0
  2 27  1  0
  2 28  1  0
  3 29  1  0
  5 30  1  0
  6 31  1  0
  7 32  1  0
  8 33  1  0
  9 34  1  0
 10 35  1  0
 11 36  1  0
 11 37  1  0
 14 38  1  0
 16 39  1  0
 17 40  1  0
 18 41  1  0
 20 42  1  0
 21 43  1  0
M  END
>  <Energy>  (240) 
554.25800176585972

>  <compound_id>  (240) 
77335

>  <target_id>  (240) 
1

>  <reference_id>  (240) 
76

>  <inspiration_ids>  (240) 
[52, 76]

>  <energy_score>  (240) 
414.1508085898031

>  <distance_score>  (240) 
16.01016456476532

>  <path>  (240) 
/opt/xchem-fragalysis-2/maxwin/BulkDock/SCRATCH/511025/C77335-P76/C77335-P76.minimised.mol

>  <scratch_subdir>  (240) 
/opt/xchem-fragalysis-2/maxwin/BulkDock/SCRATCH/511025/C77335-P76

>  <fragmenstein_runtime>  (240) 
18.692739725112915

>  <fragmenstein_outcome>  (240) 
too moved

>  <fragmenstein_mode>  (240) 
expansion

>  <fragmenstein_error>  (240) 


$$$$
C77336-P52
     RDKit          3D

 39 41  0  0  0  0  0  0  0  0999 V2000
   -9.7068   -7.8638   19.1662 C   0  0  0  0  0  0  0  0  0  0  0  0
   -8.3403   -7.2730   19.4647 C   0  0  0  0  0  0  0  0  0  0  0  0
   -7.5647   -8.1514   20.2821 O   0  0  0  0  0  0  0  0  0  0  0  0
   -6.9719   -9.2524   19.5516 C   0  0  0  0  0  0  0  0  0  0  0  0
   -7.6945  -10.6612   20.0728 C   0  0  0  0  0  0  0  0  0  0  0  0
   -7.7182  -11.5797   19.2914 O   0  0  0  0  0  0  0  0  0  0  0  0
   -8.2034  -10.5630   21.4628 N   0  0  0  0  0  0  0  0  0  0  0  0
   -8.7768  -11.5363   22.3077 C   0  0  0  0  0  0  0  0  0  0  0  0
   -9.3004  -12.7229   22.0432 N   0  0  0  0  0  0  0  0  0  0  0  0
   -9.5350  -13.3767   23.2576 C   0  0  0  0  0  0  0  0  0  0  0  0
   -9.9895  -14.6834   23.5395 C   0  0  0  0  0  0  0  0  0  0  0  0
  -10.0961  -15.1129   24.8737 C   0  0  0  0  0  0  0  0  0  0  0  0
   -9.7566  -14.2611   25.9215 C   0  0  0  0  0  0  0  0  0  0  0  0
   -9.3041  -12.9561   25.6613 C   0  0  0  0  0  0  0  0  0  0  0  0
   -9.2064  -12.5494   24.3161 C   0  0  0  0  0  0  0  0  0  0  0  0
   -8.8103  -11.3728   23.6973 N   0  0  0  0  0  0  0  0  0  0  0  0
   -5.3760   -9.0628   19.3959 C   0  0  0  0  0  0  0  0  0  0  0  0
   -4.7013   -7.8763   19.8041 C   0  0  0  0  0  0  0  0  0  0  0  0
   -3.3151   -7.6503   19.5917 C   0  0  0  0  0  0  0  0  0  0  0  0
   -2.5431   -8.6030   18.9408 C   0  0  0  0  0  0  0  0  0  0  0  0
   -3.1726   -9.7621   18.4907 C   0  0  0  0  0  0  0  0  0  0  0  0
   -4.5626   -9.9789   18.7027 C   0  0  0  0  0  0  0  0  0  0  0  0
  -10.3269   -7.1455   18.6223 H   0  0  0  0  0  0  0  0  0  0  0  0
  -10.2170   -8.1397   20.0949 H   0  0  0  0  0  0  0  0  0  0  0  0
   -9.6260   -8.7738   18.5641 H   0  0  0  0  0  0  0  0  0  0  0  0
   -7.7989   -7.0148   18.5476 H   0  0  0  0  0  0  0  0  0  0  0  0
   -8.4726   -6.3473   20.0344 H   0  0  0  0  0  0  0  0  0  0  0  0
   -7.3118   -9.1911   18.5060 H   0  0  0  0  0  0  0  0  0  0  0  0
   -8.0877   -9.6164   21.7905 H   0  0  0  0  0  0  0  0  0  0  0  0
  -10.2424  -15.3466   22.7181 H   0  0  0  0  0  0  0  0  0  0  0  0
  -10.4494  -16.1153   25.0733 H   0  0  0  0  0  0  0  0  0  0  0  0
   -9.8461  -14.6001   26.9514 H   0  0  0  0  0  0  0  0  0  0  0  0
   -9.0371  -12.2869   26.4743 H   0  0  0  0  0  0  0  0  0  0  0  0
   -8.4722  -10.5596   24.1868 H   0  0  0  0  0  0  0  0  0  0  0  0
   -5.2671   -7.0971   20.3129 H   0  0  0  0  0  0  0  0  0  0  0  0
   -2.8622   -6.7264   19.9413 H   0  0  0  0  0  0  0  0  0  0  0  0
   -1.4810   -8.4466   18.7791 H   0  0  0  0  0  0  0  0  0  0  0  0
   -2.5969  -10.5180   17.9610 H   0  0  0  0  0  0  0  0  0  0  0  0
   -5.0108  -10.8923   18.3175 H   0  0  0  0  0  0  0  0  0  0  0  0
  1  2  1  0
  2  3  1  0
  3  4  1  0
  4  5  1  0
  5  6  2  0
  5  7  1  0
  7  8  1  0
  8  9  2  0
  9 10  1  0
 10 11  2  0
 11 12  1  0
 12 13  2  0
 13 14  1  0
 14 15  2  0
 15 16  1  0
  4 17  1  0
 17 18  2  0
 18 19  1  0
 19 20  2  0
 20 21  1  0
 21 22  2  0
 16  8  1  0
 22 17  1  0
 15 10  1  0
  1 23  1  0
  1 24  1  0
  1 25  1  0
  2 26  1  0
  2 27  1  0
  4 28  1  0
  7 29  1  0
 11 30  1  0
 12 31  1  0
 13 32  1  0
 14 33  1  0
 16 34  1  0
 18 35  1  0
 19 36  1  0
 20 37  1  0
 21 38  1  0
 22 39  1  0
M  END
>  <Energy>  (241) 
81.795787163261622

>  <compound_id>  (241) 
77336

>  <target_id>  (241) 
1

>  <reference_id>  (241) 
52

>  <inspiration_ids>  (241) 
[52, 76]

>  <energy_score>  (241) 
5.205065758104865

>  <distance_score>  (241) 
16.066389171433325

>  <path>  (241) 
/opt/xchem-fragalysis-2/maxwin/BulkDock/SCRATCH/511025/C77336-P52/C77336-P52.minimised.mol

>  <scratch_subdir>  (241) 
/opt/xchem-fragalysis-2/maxwin/BulkDock/SCRATCH/511025/C77336-P52

>  <fragmenstein_runtime>  (241) 
22.604613304138184

>  <fragmenstein_outcome>  (241) 
too moved

>  <fragmenstein_mode>  (241) 
expansion

>  <fragmenstein_error>  (241) 


$$$$
C77336-P76
     RDKit          3D

 39 41  0  0  0  0  0  0  0  0999 V2000
    0.3700   -9.0492   28.8539 C   0  0  0  0  0  0  0  0  0  0  0  0
    0.1669  -10.5530   28.8711 C   0  0  0  0  0  0  0  0  0  0  0  0
    1.1336  -11.1094   29.7529 O   0  0  0  0  0  0  0  0  0  0  0  0
    1.9546  -12.1331   29.1680 C   0  0  0  0  0  0  0  0  0  0  0  0
    1.1853  -13.5658   29.0512 C   0  0  0  0  0  0  0  0  0  0  0  0
    1.6992  -14.4191   28.3842 O   0  0  0  0  0  0  0  0  0  0  0  0
   -0.0245  -13.6062   29.9002 N   0  0  0  0  0  0  0  0  0  0  0  0
   -0.9728  -14.6226   30.1003 C   0  0  0  0  0  0  0  0  0  0  0  0
   -1.0652  -15.8188   29.5443 N   0  0  0  0  0  0  0  0  0  0  0  0
   -2.1766  -16.4623   30.0875 C   0  0  0  0  0  0  0  0  0  0  0  0
   -2.7270  -17.7384   29.8408 C   0  0  0  0  0  0  0  0  0  0  0  0
   -3.8701  -18.1551   30.5460 C   0  0  0  0  0  0  0  0  0  0  0  0
   -4.4639  -17.3154   31.4856 C   0  0  0  0  0  0  0  0  0  0  0  0
   -3.9373  -16.0386   31.7422 C   0  0  0  0  0  0  0  0  0  0  0  0
   -2.7939  -15.6453   31.0211 C   0  0  0  0  0  0  0  0  0  0  0  0
   -2.0329  -14.4893   30.9949 N   0  0  0  0  0  0  0  0  0  0  0  0
    2.9185  -11.5736   28.0163 C   0  0  0  0  0  0  0  0  0  0  0  0
    3.7808  -10.4736   28.2795 C   0  0  0  0  0  0  0  0  0  0  0  0
    4.7176   -9.9827   27.3374 C   0  0  0  0  0  0  0  0  0  0  0  0
    4.8408  -10.5926   26.0959 C   0  0  0  0  0  0  0  0  0  0  0  0
    3.9979  -11.6621   25.7965 C   0  0  0  0  0  0  0  0  0  0  0  0
    3.0403  -12.1263   26.7338 C   0  0  0  0  0  0  0  0  0  0  0  0
    0.2311   -8.6332   29.8575 H   0  0  0  0  0  0  0  0  0  0  0  0
    1.3874   -8.7914   28.5458 H   0  0  0  0  0  0  0  0  0  0  0  0
   -0.3276   -8.5591   28.1736 H   0  0  0  0  0  0  0  0  0  0  0  0
    0.2187  -10.9888   27.8709 H   0  0  0  0  0  0  0  0  0  0  0  0
   -0.8248  -10.7788   29.2751 H   0  0  0  0  0  0  0  0  0  0  0  0
    2.6771  -12.3680   29.9656 H   0  0  0  0  0  0  0  0  0  0  0  0
   -0.1187  -12.7229   30.3861 H   0  0  0  0  0  0  0  0  0  0  0  0
   -2.2685  -18.3865   29.1016 H   0  0  0  0  0  0  0  0  0  0  0  0
   -4.3002  -19.1353   30.3502 H   0  0  0  0  0  0  0  0  0  0  0  0
   -5.3525  -17.6563   32.0160 H   0  0  0  0  0  0  0  0  0  0  0  0
   -4.4068  -15.3834   32.4679 H   0  0  0  0  0  0  0  0  0  0  0  0
   -2.2065  -13.6780   31.5632 H   0  0  0  0  0  0  0  0  0  0  0  0
    3.7400   -9.9983   29.2601 H   0  0  0  0  0  0  0  0  0  0  0  0
    5.3605   -9.1472   27.6025 H   0  0  0  0  0  0  0  0  0  0  0  0
    5.5700  -10.2445   25.3709 H   0  0  0  0  0  0  0  0  0  0  0  0
    4.0624  -12.1504   24.8252 H   0  0  0  0  0  0  0  0  0  0  0  0
    2.3975  -12.9523   26.4442 H   0  0  0  0  0  0  0  0  0  0  0  0
  1  2  1  0
  2  3  1  0
  3  4  1  0
  4  5  1  0
  5  6  2  0
  5  7  1  0
  7  8  1  0
  8  9  2  0
  9 10  1  0
 10 11  2  0
 11 12  1  0
 12 13  2  0
 13 14  1  0
 14 15  2  0
 15 16  1  0
  4 17  1  0
 17 18  2  0
 18 19  1  0
 19 20  2  0
 20 21  1  0
 21 22  2  0
 16  8  1  0
 22 17  1  0
 15 10  1  0
  1 23  1  0
  1 24  1  0
  1 25  1  0
  2 26  1  0
  2 27  1  0
  4 28  1  0
  7 29  1  0
 11 30  1  0
 12 31  1  0
 13 32  1  0
 14 33  1  0
 16 34  1  0
 18 35  1  0
 19 36  1  0
 20 37  1  0
 21 38  1  0
 22 39  1  0
M  END
>  <Energy>  (242) 
76.148956061637662

>  <compound_id>  (242) 
77336

>  <target_id>  (242) 
1

>  <reference_id>  (242) 
76

>  <inspiration_ids>  (242) 
[52, 76]

>  <energy_score>  (242) 
-0.44176534352135377

>  <distance_score>  (242) 
14.424250258646735

>  <path>  (242) 
/opt/xchem-fragalysis-2/maxwin/BulkDock/SCRATCH/511025/C77336-P76/C77336-P76.minimised.mol

>  <scratch_subdir>  (242) 
/opt/xchem-fragalysis-2/maxwin/BulkDock/SCRATCH/511025/C77336-P76

>  <fragmenstein_runtime>  (242) 
23.529656410217285

>  <fragmenstein_outcome>  (242) 
too moved

>  <fragmenstein_mode>  (242) 
expansion

>  <fragmenstein_error>  (242) 


$$$$
C77337-P52
     RDKit          3D

 45 47  0  0  0  0  0  0  0  0999 V2000
    3.5254   -8.7761   20.7430 C   0  0  0  0  0  0  0  0  0  0  0  0
    3.4548   -9.2643   22.1880 C   0  0  0  0  0  0  0  0  0  0  0  0
    2.2268   -9.8523   22.7850 O   0  0  0  0  0  0  0  0  0  0  0  0
    1.6873  -11.1991   22.8602 C   0  0  0  0  0  0  0  0  0  0  0  0
    0.5565  -12.8637   22.9456 C   0  0  0  0  0  0  0  0  0  0  0  0
    1.1589  -13.7359   22.4012 O   0  0  0  0  0  0  0  0  0  0  0  0
   -1.1446  -13.1654   23.7030 N   0  0  0  0  0  0  0  0  0  0  0  0
   -2.1728  -14.7441   23.9165 C   0  0  0  0  0  0  0  0  0  0  0  0
   -3.2278  -14.7292   24.5891 N   0  0  0  0  0  0  0  0  0  0  0  0
   -2.5592  -15.3715   25.9037 C   0  0  0  0  0  0  0  0  0  0  0  0
   -2.2650  -14.4359   26.8700 C   0  0  0  0  0  0  0  0  0  0  0  0
   -2.2434  -15.6547   27.1383 C   0  0  0  0  0  0  0  0  0  0  0  0
   -0.6935  -16.2256   27.1290 C   0  0  0  0  0  0  0  0  0  0  0  0
   -0.3830  -17.1964   26.4246 C   0  0  0  0  0  0  0  0  0  0  0  0
   -1.2203  -16.4602   25.6328 C   0  0  0  0  0  0  0  0  0  0  0  0
   -2.2396  -16.4714   24.8307 N   0  0  0  0  0  0  0  0  0  0  0  0
   -2.6966  -18.2779   25.3157 C   0  0  0  0  0  0  0  0  0  0  0  0
   -4.0330  -19.2615   25.6824 C   0  0  0  0  0  0  0  0  0  0  0  0
    3.2817  -11.9468   22.3164 C   0  0  0  0  0  0  0  0  0  0  0  0
    3.7616  -11.8702   20.9813 C   0  0  0  0  0  0  0  0  0  0  0  0
    5.1183  -12.0006   20.6024 C   0  0  0  0  0  0  0  0  0  0  0  0
    6.0751  -12.2750   21.5586 C   0  0  0  0  0  0  0  0  0  0  0  0
    5.6486  -12.4811   22.8644 C   0  0  0  0  0  0  0  0  0  0  0  0
    4.2846  -12.3432   23.2294 C   0  0  0  0  0  0  0  0  0  0  0  0
    4.5452   -8.4331   20.5317 H   0  0  0  0  0  0  0  0  0  0  0  0
    2.8756   -7.9159   20.5635 H   0  0  0  0  0  0  0  0  0  0  0  0
    3.2836   -9.5246   20.0042 H   0  0  0  0  0  0  0  0  0  0  0  0
    4.3657   -9.7982   22.4651 H   0  0  0  0  0  0  0  0  0  0  0  0
    3.5699   -8.3151   22.7327 H   0  0  0  0  0  0  0  0  0  0  0  0
    1.2483  -10.8368   21.9396 H   0  0  0  0  0  0  0  0  0  0  0  0
   -1.4458  -12.3291   24.1841 H   0  0  0  0  0  0  0  0  0  0  0  0
   -2.5786  -13.4653   26.7274 H   0  0  0  0  0  0  0  0  0  0  0  0
   -3.1450  -16.3367   27.2795 H   0  0  0  0  0  0  0  0  0  0  0  0
    0.2725  -15.7392   27.4109 H   0  0  0  0  0  0  0  0  0  0  0  0
    0.6587  -17.4327   26.2278 H   0  0  0  0  0  0  0  0  0  0  0  0
   -2.3090  -18.9779   24.5527 H   0  0  0  0  0  0  0  0  0  0  0  0
   -2.2330  -18.3319   26.3008 H   0  0  0  0  0  0  0  0  0  0  0  0
   -4.3670  -19.1012   26.7156 H   0  0  0  0  0  0  0  0  0  0  0  0
   -3.6798  -20.2994   25.6430 H   0  0  0  0  0  0  0  0  0  0  0  0
   -4.8768  -19.1702   24.9997 H   0  0  0  0  0  0  0  0  0  0  0  0
    3.0879  -11.6636   20.1804 H   0  0  0  0  0  0  0  0  0  0  0  0
    5.3957  -11.8914   19.5578 H   0  0  0  0  0  0  0  0  0  0  0  0
    7.1201  -12.3845   21.2901 H   0  0  0  0  0  0  0  0  0  0  0  0
    6.3716  -12.7539   23.6299 H   0  0  0  0  0  0  0  0  0  0  0  0
    4.0538  -12.5148   24.2747 H   0  0  0  0  0  0  0  0  0  0  0  0
  1  2  1  0
  2  3  1  0
  3  4  1  0
  4  5  1  0
  5  6  2  0
  5  7  1  0
  7  8  1  0
  8  9  2  0
  9 10  1  0
 10 11  2  0
 11 12  1  0
 12 13  2  0
 13 14  1  0
 14 15  2  0
 15 16  1  0
 16 17  1  0
 17 18  1  0
  4 19  1  0
 19 20  2  0
 20 21  1  0
 21 22  2  0
 22 23  1  0
 23 24  2  0
 16  8  1  0
 24 19  1  0
 15 10  1  0
  1 25  1  0
  1 26  1  0
  1 27  1  0
  2 28  1  0
  2 29  1  0
  4 30  1  0
  7 31  1  0
 11 32  1  0
 12 33  1  0
 13 34  1  0
 14 35  1  0
 17 36  1  0
 17 37  1  0
 18 38  1  0
 18 39  1  0
 18 40  1  0
 20 41  1  0
 21 42  1  0
 22 43  1  0
 23 44  1  0
 24 45  1  0
M  END
>  <Energy>  (243) 
1179.4474349535278

>  <compound_id>  (243) 
77337

>  <target_id>  (243) 
1

>  <reference_id>  (243) 
52

>  <inspiration_ids>  (243) 
[52, 76]

>  <energy_score>  (243) 
1069.2849701916912

>  <distance_score>  (243) 
13.659691755167795

>  <path>  (243) 
/opt/xchem-fragalysis-2/maxwin/BulkDock/SCRATCH/511025/C77337-P52/C77337-P52.minimised.mol

>  <scratch_subdir>  (243) 
/opt/xchem-fragalysis-2/maxwin/BulkDock/SCRATCH/511025/C77337-P52

>  <fragmenstein_runtime>  (243) 
35.33631873130798

>  <fragmenstein_outcome>  (243) 
too moved

>  <fragmenstein_mode>  (243) 
expansion

>  <fragmenstein_error>  (243) 


$$$$
C77337-P76
     RDKit          3D

 45 47  0  0  0  0  0  0  0  0999 V2000
   -2.4191  -11.1744   32.6955 C   0  0  0  0  0  0  0  0  0  0  0  0
   -1.3242  -11.8047   31.8563 C   0  0  0  0  0  0  0  0  0  0  0  0
   -1.8257  -11.9586   30.5254 O   0  0  0  0  0  0  0  0  0  0  0  0
   -0.9453  -12.7219   29.6728 C   0  0  0  0  0  0  0  0  0  0  0  0
   -0.9635  -14.2961   30.1037 C   0  0  0  0  0  0  0  0  0  0  0  0
    0.0408  -14.9463   29.9653 O   0  0  0  0  0  0  0  0  0  0  0  0
   -2.3424  -14.7074   30.5383 N   0  0  0  0  0  0  0  0  0  0  0  0
   -2.8337  -15.9496   30.9851 C   0  0  0  0  0  0  0  0  0  0  0  0
   -2.1080  -17.0500   31.0825 N   0  0  0  0  0  0  0  0  0  0  0  0
   -2.8968  -18.0389   31.6354 C   0  0  0  0  0  0  0  0  0  0  0  0
   -2.5878  -19.3729   31.9658 C   0  0  0  0  0  0  0  0  0  0  0  0
   -3.5516  -20.1813   32.5871 C   0  0  0  0  0  0  0  0  0  0  0  0
   -4.8065  -19.6668   32.8870 C   0  0  0  0  0  0  0  0  0  0  0  0
   -5.1341  -18.3464   32.5576 C   0  0  0  0  0  0  0  0  0  0  0  0
   -4.1643  -17.5602   31.9075 C   0  0  0  0  0  0  0  0  0  0  0  0
   -4.1511  -16.2665   31.3943 N   0  0  0  0  0  0  0  0  0  0  0  0
   -5.3589  -15.4553   31.3752 C   0  0  0  0  0  0  0  0  0  0  0  0
   -6.5393  -16.0765   30.6212 C   0  0  0  0  0  0  0  0  0  0  0  0
    0.3910  -11.8925   29.3938 C   0  0  0  0  0  0  0  0  0  0  0  0
    0.3059  -10.6092   28.7834 C   0  0  0  0  0  0  0  0  0  0  0  0
    1.4014   -9.7146   28.7056 C   0  0  0  0  0  0  0  0  0  0  0  0
    2.6365  -10.0867   29.2141 C   0  0  0  0  0  0  0  0  0  0  0  0
    2.7629  -11.3552   29.7844 C   0  0  0  0  0  0  0  0  0  0  0  0
    1.6644  -12.2495   29.8561 C   0  0  0  0  0  0  0  0  0  0  0  0
   -2.0895  -11.0398   33.7294 H   0  0  0  0  0  0  0  0  0  0  0  0
   -3.3179  -11.8001   32.6888 H   0  0  0  0  0  0  0  0  0  0  0  0
   -2.7053  -10.1997   32.2870 H   0  0  0  0  0  0  0  0  0  0  0  0
   -1.0478  -12.7734   32.2843 H   0  0  0  0  0  0  0  0  0  0  0  0
   -0.4480  -11.1491   31.8558 H   0  0  0  0  0  0  0  0  0  0  0  0
   -1.4372  -12.7421   28.6900 H   0  0  0  0  0  0  0  0  0  0  0  0
   -2.9664  -13.9129   30.4633 H   0  0  0  0  0  0  0  0  0  0  0  0
   -1.5956  -19.7557   31.7511 H   0  0  0  0  0  0  0  0  0  0  0  0
   -3.3060  -21.2070   32.8475 H   0  0  0  0  0  0  0  0  0  0  0  0
   -5.5536  -20.2907   33.3733 H   0  0  0  0  0  0  0  0  0  0  0  0
   -6.1187  -17.9660   32.8062 H   0  0  0  0  0  0  0  0  0  0  0  0
   -5.6351  -15.2741   32.4208 H   0  0  0  0  0  0  0  0  0  0  0  0
   -5.1037  -14.4814   30.9496 H   0  0  0  0  0  0  0  0  0  0  0  0
   -6.2252  -16.5241   29.6807 H   0  0  0  0  0  0  0  0  0  0  0  0
   -7.2938  -15.3114   30.4140 H   0  0  0  0  0  0  0  0  0  0  0  0
   -7.0211  -16.8552   31.2085 H   0  0  0  0  0  0  0  0  0  0  0  0
   -0.6647  -10.2774   28.4216 H   0  0  0  0  0  0  0  0  0  0  0  0
    1.2635   -8.7181   28.2937 H   0  0  0  0  0  0  0  0  0  0  0  0
    3.4841   -9.4087   29.1840 H   0  0  0  0  0  0  0  0  0  0  0  0
    3.7220  -11.6701   30.1936 H   0  0  0  0  0  0  0  0  0  0  0  0
    1.8179  -13.2148   30.3388 H   0  0  0  0  0  0  0  0  0  0  0  0
  1  2  1  0
  2  3  1  0
  3  4  1  0
  4  5  1  0
  5  6  2  0
  5  7  1  0
  7  8  1  0
  8  9  2  0
  9 10  1  0
 10 11  2  0
 11 12  1  0
 12 13  2  0
 13 14  1  0
 14 15  2  0
 15 16  1  0
 16 17  1  0
 17 18  1  0
  4 19  1  0
 19 20  2  0
 20 21  1  0
 21 22  2  0
 22 23  1  0
 23 24  2  0
 16  8  1  0
 24 19  1  0
 15 10  1  0
  1 25  1  0
  1 26  1  0
  1 27  1  0
  2 28  1  0
  2 29  1  0
  4 30  1  0
  7 31  1  0
 11 32  1  0
 12 33  1  0
 13 34  1  0
 14 35  1  0
 17 36  1  0
 17 37  1  0
 18 38  1  0
 18 39  1  0
 18 40  1  0
 20 41  1  0
 21 42  1  0
 22 43  1  0
 23 44  1  0
 24 45  1  0
M  END
>  <Energy>  (244) 
83.723751035565527

>  <compound_id>  (244) 
77337

>  <target_id>  (244) 
1

>  <reference_id>  (244) 
76

>  <inspiration_ids>  (244) 
[52, 76]

>  <energy_score>  (244) 
-26.438713726266485

>  <distance_score>  (244) 
15.469202236728815

>  <path>  (244) 
/opt/xchem-fragalysis-2/maxwin/BulkDock/SCRATCH/511025/C77337-P76/C77337-P76.minimised.mol

>  <scratch_subdir>  (244) 
/opt/xchem-fragalysis-2/maxwin/BulkDock/SCRATCH/511025/C77337-P76

>  <fragmenstein_runtime>  (244) 
23.546804666519165

>  <fragmenstein_outcome>  (244) 
too moved

>  <fragmenstein_mode>  (244) 
expansion

>  <fragmenstein_error>  (244) 


$$$$
C4827-P52
     RDKit          3D

 42 44  0  0  0  0  0  0  0  0999 V2000
    1.9542  -20.2410   29.3475 C   0  0  0  0  0  0  0  0  0  0  0  0
    2.2172  -18.7375   29.1384 C   0  0  0  0  0  0  0  0  0  0  0  0
    1.3081  -18.1234   28.1957 N   0  0  0  0  0  0  0  0  0  0  0  0
    1.6010  -17.5701   26.9362 C   0  0  0  0  0  0  0  0  0  0  0  0
    2.6730  -16.7932   26.3518 N   0  0  0  0  0  0  0  0  0  0  0  0
    3.9082  -16.2017   26.9645 C   0  0  0  0  0  0  0  0  0  0  0  0
    4.3513  -16.2987   28.0798 O   0  0  0  0  0  0  0  0  0  0  0  0
    4.7072  -15.0937   25.7645 C   0  0  0  0  0  0  0  0  0  0  0  0
    5.9935  -14.4202   25.4735 O   0  0  0  0  0  0  0  0  0  0  0  0
    5.9321  -13.1835   24.6240 C   0  0  0  0  0  0  0  0  0  0  0  0
    7.3362  -12.6769   24.1280 C   0  0  0  0  0  0  0  0  0  0  0  0
    7.3695  -11.3070   23.4565 C   0  0  0  0  0  0  0  0  0  0  0  0
    6.6201  -10.8144   22.4015 C   0  0  0  0  0  0  0  0  0  0  0  0
    6.9383   -9.4602   22.0744 C   0  0  0  0  0  0  0  0  0  0  0  0
    7.9580   -8.9702   22.8563 C   0  0  0  0  0  0  0  0  0  0  0  0
    8.5396  -10.1414   23.9543 S   0  0  0  0  0  0  0  0  0  0  0  0
    0.5100  -17.8145   26.1856 N   0  0  0  0  0  0  0  0  0  0  0  0
   -0.5154  -18.2920   26.9931 C   0  0  0  0  0  0  0  0  0  0  0  0
   -1.8568  -18.6354   26.7084 C   0  0  0  0  0  0  0  0  0  0  0  0
   -2.7088  -19.0663   27.7431 C   0  0  0  0  0  0  0  0  0  0  0  0
   -2.2410  -19.1481   29.0499 C   0  0  0  0  0  0  0  0  0  0  0  0
   -0.9108  -18.8269   29.3467 C   0  0  0  0  0  0  0  0  0  0  0  0
   -0.0651  -18.4126   28.2896 C   0  0  0  0  0  0  0  0  0  0  0  0
    1.0735  -20.4401   29.9608 H   0  0  0  0  0  0  0  0  0  0  0  0
    1.8410  -20.7624   28.3911 H   0  0  0  0  0  0  0  0  0  0  0  0
    2.8065  -20.6842   29.8739 H   0  0  0  0  0  0  0  0  0  0  0  0
    2.1409  -18.1878   30.0822 H   0  0  0  0  0  0  0  0  0  0  0  0
    3.2315  -18.6087   28.7488 H   0  0  0  0  0  0  0  0  0  0  0  0
    2.6517  -16.5723   25.3703 H   0  0  0  0  0  0  0  0  0  0  0  0
    4.0694  -14.2299   25.9446 H   0  0  0  0  0  0  0  0  0  0  0  0
    4.4443  -15.5604   24.8095 H   0  0  0  0  0  0  0  0  0  0  0  0
    5.2918  -13.4050   23.7631 H   0  0  0  0  0  0  0  0  0  0  0  0
    5.4537  -12.4118   25.2355 H   0  0  0  0  0  0  0  0  0  0  0  0
    7.7384  -13.4200   23.4276 H   0  0  0  0  0  0  0  0  0  0  0  0
    8.0140  -12.6938   24.9911 H   0  0  0  0  0  0  0  0  0  0  0  0
    5.8499  -11.3920   21.9019 H   0  0  0  0  0  0  0  0  0  0  0  0
    6.4356   -8.8934   21.3022 H   0  0  0  0  0  0  0  0  0  0  0  0
    8.4100   -7.9909   22.8420 H   0  0  0  0  0  0  0  0  0  0  0  0
   -2.2271  -18.5572   25.6927 H   0  0  0  0  0  0  0  0  0  0  0  0
   -3.7429  -19.3142   27.5204 H   0  0  0  0  0  0  0  0  0  0  0  0
   -2.9104  -19.4451   29.8532 H   0  0  0  0  0  0  0  0  0  0  0  0
   -0.5510  -18.8829   30.3698 H   0  0  0  0  0  0  0  0  0  0  0  0
  1  2  1  0
  2  3  1  0
  3  4  1  0
  4  5  1  0
  5  6  1  0
  6  7  2  0
  6  8  1  0
  8  9  1  0
  9 10  1  0
 10 11  1  0
 11 12  1  0
 12 13  2  0
 13 14  1  0
 14 15  2  0
 15 16  1  0
  4 17  2  0
 17 18  1  0
 18 19  2  0
 19 20  1  0
 20 21  2  0
 21 22  1  0
 22 23  2  0
 23  3  1  0
 16 12  1  0
 23 18  1  0
  1 24  1  0
  1 25  1  0
  1 26  1  0
  2 27  1  0
  2 28  1  0
  5 29  1  0
  8 30  1  0
  8 31  1  0
 10 32  1  0
 10 33  1  0
 11 34  1  0
 11 35  1  0
 13 36  1  0
 14 37  1  0
 15 38  1  0
 19 39  1  0
 20 40  1  0
 21 41  1  0
 22 42  1  0
M  END
>  <Energy>  (245) 
93.017637237863127

>  <compound_id>  (245) 
4827

>  <target_id>  (245) 
1

>  <reference_id>  (245) 
52

>  <inspiration_ids>  (245) 
[52, 76]

>  <energy_score>  (245) 
-8.273140006856607

>  <distance_score>  (245) 
15.17283710609052

>  <path>  (245) 
/opt/xchem-fragalysis-2/maxwin/BulkDock/SCRATCH/511025/C4827-P52/C4827-P52.minimised.mol

>  <scratch_subdir>  (245) 
/opt/xchem-fragalysis-2/maxwin/BulkDock/SCRATCH/511025/C4827-P52

>  <fragmenstein_runtime>  (245) 
22.704583168029785

>  <fragmenstein_outcome>  (245) 
too moved

>  <fragmenstein_mode>  (245) 
expansion

>  <fragmenstein_error>  (245) 


$$$$
C4827-P76
     RDKit          3D

 42 44  0  0  0  0  0  0  0  0999 V2000
   -0.8688  -20.6181   22.3850 C   0  0  0  0  0  0  0  0  0  0  0  0
    0.4947  -19.9610   22.6506 C   0  0  0  0  0  0  0  0  0  0  0  0
    0.9875  -19.8245   24.0125 N   0  0  0  0  0  0  0  0  0  0  0  0
    2.2182  -19.2014   24.4158 C   0  0  0  0  0  0  0  0  0  0  0  0
    3.2278  -18.3398   23.8259 N   0  0  0  0  0  0  0  0  0  0  0  0
    3.3001  -17.6860   22.4696 C   0  0  0  0  0  0  0  0  0  0  0  0
    2.5724  -17.7857   21.5119 O   0  0  0  0  0  0  0  0  0  0  0  0
    4.6328  -16.4993   22.3687 C   0  0  0  0  0  0  0  0  0  0  0  0
    4.6979  -15.2580   21.5400 O   0  0  0  0  0  0  0  0  0  0  0  0
    5.9832  -14.5168   21.4139 C   0  0  0  0  0  0  0  0  0  0  0  0
    5.7859  -13.1110   20.7426 C   0  0  0  0  0  0  0  0  0  0  0  0
    7.0111  -12.3423   20.2624 C   0  0  0  0  0  0  0  0  0  0  0  0
    7.4818  -12.2193   18.9640 C   0  0  0  0  0  0  0  0  0  0  0  0
    8.5829  -11.3211   18.8469 C   0  0  0  0  0  0  0  0  0  0  0  0
    8.9216  -10.7699   20.0603 C   0  0  0  0  0  0  0  0  0  0  0  0
    7.9154  -11.3365   21.3243 S   0  0  0  0  0  0  0  0  0  0  0  0
    2.3225  -19.4179   25.7311 N   0  0  0  0  0  0  0  0  0  0  0  0
    1.1610  -19.9956   26.2113 C   0  0  0  0  0  0  0  0  0  0  0  0
    0.7742  -20.2800   27.5449 C   0  0  0  0  0  0  0  0  0  0  0  0
   -0.4808  -20.8404   27.8220 C   0  0  0  0  0  0  0  0  0  0  0  0
   -1.3455  -21.1289   26.7781 C   0  0  0  0  0  0  0  0  0  0  0  0
   -0.9757  -20.8574   25.4477 C   0  0  0  0  0  0  0  0  0  0  0  0
    0.2923  -20.2733   25.1675 C   0  0  0  0  0  0  0  0  0  0  0  0
   -1.6897  -20.0508   22.8287 H   0  0  0  0  0  0  0  0  0  0  0  0
   -1.0481  -20.6414   21.3042 H   0  0  0  0  0  0  0  0  0  0  0  0
   -0.8859  -21.6553   22.7316 H   0  0  0  0  0  0  0  0  0  0  0  0
    1.2640  -20.5355   22.1205 H   0  0  0  0  0  0  0  0  0  0  0  0
    0.4801  -18.9611   22.2126 H   0  0  0  0  0  0  0  0  0  0  0  0
    3.9585  -17.9651   24.4160 H   0  0  0  0  0  0  0  0  0  0  0  0
    5.4875  -17.1141   22.0612 H   0  0  0  0  0  0  0  0  0  0  0  0
    4.8006  -16.1724   23.4006 H   0  0  0  0  0  0  0  0  0  0  0  0
    6.6529  -15.1385   20.8112 H   0  0  0  0  0  0  0  0  0  0  0  0
    6.4065  -14.3996   22.4167 H   0  0  0  0  0  0  0  0  0  0  0  0
    5.1125  -13.2478   19.8855 H   0  0  0  0  0  0  0  0  0  0  0  0
    5.2187  -12.4863   21.4448 H   0  0  0  0  0  0  0  0  0  0  0  0
    7.0414  -12.7465   18.1249 H   0  0  0  0  0  0  0  0  0  0  0  0
    9.0902  -11.1037   17.9147 H   0  0  0  0  0  0  0  0  0  0  0  0
    9.7122  -10.0663   20.2719 H   0  0  0  0  0  0  0  0  0  0  0  0
    1.4630  -20.0464   28.3510 H   0  0  0  0  0  0  0  0  0  0  0  0
   -0.7646  -21.0486   28.8498 H   0  0  0  0  0  0  0  0  0  0  0  0
   -2.3179  -21.5702   26.9848 H   0  0  0  0  0  0  0  0  0  0  0  0
   -1.6934  -21.1040   24.6768 H   0  0  0  0  0  0  0  0  0  0  0  0
  1  2  1  0
  2  3  1  0
  3  4  1  0
  4  5  1  0
  5  6  1  0
  6  7  2  0
  6  8  1  0
  8  9  1  0
  9 10  1  0
 10 11  1  0
 11 12  1  0
 12 13  2  0
 13 14  1  0
 14 15  2  0
 15 16  1  0
  4 17  2  0
 17 18  1  0
 18 19  2  0
 19 20  1  0
 20 21  2  0
 21 22  1  0
 22 23  2  0
 23  3  1  0
 16 12  1  0
 23 18  1  0
  1 24  1  0
  1 25  1  0
  1 26  1  0
  2 27  1  0
  2 28  1  0
  5 29  1  0
  8 30  1  0
  8 31  1  0
 10 32  1  0
 10 33  1  0
 11 34  1  0
 11 35  1  0
 13 36  1  0
 14 37  1  0
 15 38  1  0
 19 39  1  0
 20 40  1  0
 21 41  1  0
 22 42  1  0
M  END
>  <Energy>  (246) 
85.943460641021559

>  <compound_id>  (246) 
4827

>  <target_id>  (246) 
1

>  <reference_id>  (246) 
76

>  <inspiration_ids>  (246) 
[52, 76]

>  <energy_score>  (246) 
-15.347316603699426

>  <distance_score>  (246) 
14.995634237206477

>  <path>  (246) 
/opt/xchem-fragalysis-2/maxwin/BulkDock/SCRATCH/511025/C4827-P76/C4827-P76.minimised.mol

>  <scratch_subdir>  (246) 
/opt/xchem-fragalysis-2/maxwin/BulkDock/SCRATCH/511025/C4827-P76

>  <fragmenstein_runtime>  (246) 
18.820655584335327

>  <fragmenstein_outcome>  (246) 
too moved

>  <fragmenstein_mode>  (246) 
expansion

>  <fragmenstein_error>  (246) 


$$$$
C77338-P52
     RDKit          3D

 39 41  0  0  0  0  0  0  0  0999 V2000
    5.9964  -11.1854   21.1826 C   0  0  0  0  0  0  0  0  0  0  0  0
    5.2832  -12.5547   21.2250 C   0  0  0  0  0  0  0  0  0  0  0  0
    5.7028  -13.4478   22.2772 O   0  0  0  0  0  0  0  0  0  0  0  0
    6.7169  -14.4080   21.9213 C   0  0  0  0  0  0  0  0  0  0  0  0
    6.7794  -15.7119   22.9553 C   0  0  0  0  0  0  0  0  0  0  0  0
    7.8166  -16.0129   23.4850 O   0  0  0  0  0  0  0  0  0  0  0  0
    5.4499  -16.3852   22.9731 N   0  0  0  0  0  0  0  0  0  0  0  0
    5.0442  -17.6146   23.5361 C   0  0  0  0  0  0  0  0  0  0  0  0
    5.6134  -18.4273   24.4123 N   0  0  0  0  0  0  0  0  0  0  0  0
    4.7814  -19.5545   24.5658 C   0  0  0  0  0  0  0  0  0  0  0  0
    4.8223  -20.6843   25.4234 C   0  0  0  0  0  0  0  0  0  0  0  0
    5.8228  -20.8393   26.3031 F   0  0  0  0  0  0  0  0  0  0  0  0
    3.7997  -21.6560   25.3878 C   0  0  0  0  0  0  0  0  0  0  0  0
    2.7494  -21.5431   24.4766 C   0  0  0  0  0  0  0  0  0  0  0  0
    2.6754  -20.4361   23.6141 C   0  0  0  0  0  0  0  0  0  0  0  0
    3.6890  -19.4576   23.7146 C   0  0  0  0  0  0  0  0  0  0  0  0
    3.8254  -18.1936   23.1827 N   0  0  0  0  0  0  0  0  0  0  0  0
    8.0361  -13.6350   21.5998 C   0  0  0  0  0  0  0  0  0  0  0  0
    8.6648  -12.7993   22.5418 C   0  0  0  0  0  0  0  0  0  0  0  0
    9.7337  -11.9531   22.1823 C   0  0  0  0  0  0  0  0  0  0  0  0
   10.2065  -11.9279   20.8732 C   0  0  0  0  0  0  0  0  0  0  0  0
    9.6054  -12.7445   19.9197 C   0  0  0  0  0  0  0  0  0  0  0  0
    8.5359  -13.5861   20.2774 C   0  0  0  0  0  0  0  0  0  0  0  0
    6.9812  -11.2542   20.7216 H   0  0  0  0  0  0  0  0  0  0  0  0
    5.4103  -10.4788   20.5868 H   0  0  0  0  0  0  0  0  0  0  0  0
    6.1200  -10.7861   22.1936 H   0  0  0  0  0  0  0  0  0  0  0  0
    4.2228  -12.3603   21.4218 H   0  0  0  0  0  0  0  0  0  0  0  0
    5.3340  -13.0472   20.2474 H   0  0  0  0  0  0  0  0  0  0  0  0
    6.3953  -14.8831   20.9820 H   0  0  0  0  0  0  0  0  0  0  0  0
    4.7815  -15.8105   22.4851 H   0  0  0  0  0  0  0  0  0  0  0  0
    3.8640  -22.5065   26.0600 H   0  0  0  0  0  0  0  0  0  0  0  0
    1.9851  -22.3155   24.4327 H   0  0  0  0  0  0  0  0  0  0  0  0
    1.8459  -20.3076   22.9259 H   0  0  0  0  0  0  0  0  0  0  0  0
    3.1042  -17.7667   22.6228 H   0  0  0  0  0  0  0  0  0  0  0  0
    8.3008  -12.7854   23.5687 H   0  0  0  0  0  0  0  0  0  0  0  0
   10.1951  -11.3252   22.9404 H   0  0  0  0  0  0  0  0  0  0  0  0
   11.0403  -11.2871   20.6022 H   0  0  0  0  0  0  0  0  0  0  0  0
    9.9659  -12.7359   18.8938 H   0  0  0  0  0  0  0  0  0  0  0  0
    8.0777  -14.1944   19.4998 H   0  0  0  0  0  0  0  0  0  0  0  0
  1  2  1  0
  2  3  1  0
  3  4  1  0
  4  5  1  0
  5  6  2  0
  5  7  1  0
  7  8  1  0
  8  9  2  0
  9 10  1  0
 10 11  2  0
 11 12  1  0
 11 13  1  0
 13 14  2  0
 14 15  1  0
 15 16  2  0
 16 17  1  0
  4 18  1  0
 18 19  2  0
 19 20  1  0
 20 21  2  0
 21 22  1  0
 22 23  2  0
 17  8  1  0
 23 18  1  0
 16 10  1  0
  1 24  1  0
  1 25  1  0
  1 26  1  0
  2 27  1  0
  2 28  1  0
  4 29  1  0
  7 30  1  0
 13 31  1  0
 14 32  1  0
 15 33  1  0
 17 34  1  0
 19 35  1  0
 20 36  1  0
 21 37  1  0
 22 38  1  0
 23 39  1  0
M  END
>  <Energy>  (247) 
104.88623626891338

>  <compound_id>  (247) 
77338

>  <target_id>  (247) 
1

>  <reference_id>  (247) 
52

>  <inspiration_ids>  (247) 
[52, 76]

>  <energy_score>  (247) 
-16.100212808424658

>  <distance_score>  (247) 
16.228255420859224

>  <path>  (247) 
/opt/xchem-fragalysis-2/maxwin/BulkDock/SCRATCH/511025/C77338-P52/C77338-P52.minimised.mol

>  <scratch_subdir>  (247) 
/opt/xchem-fragalysis-2/maxwin/BulkDock/SCRATCH/511025/C77338-P52

>  <fragmenstein_runtime>  (247) 
17.820265531539917

>  <fragmenstein_outcome>  (247) 
too moved

>  <fragmenstein_mode>  (247) 
expansion

>  <fragmenstein_error>  (247) 


$$$$
C77338-P76
     RDKit          3D

 39 41  0  0  0  0  0  0  0  0999 V2000
    5.3815   -9.7638   23.6457 C   0  0  0  0  0  0  0  0  0  0  0  0
    4.3656  -10.4468   22.7264 C   0  0  0  0  0  0  0  0  0  0  0  0
    3.4320  -11.3937   23.3363 O   0  0  0  0  0  0  0  0  0  0  0  0
    3.3334  -12.8053   23.0160 C   0  0  0  0  0  0  0  0  0  0  0  0
    2.1766  -14.2591   23.4842 C   0  0  0  0  0  0  0  0  0  0  0  0
    2.8303  -15.2480   23.6285 O   0  0  0  0  0  0  0  0  0  0  0  0
    0.2848  -13.9355   23.7992 N   0  0  0  0  0  0  0  0  0  0  0  0
   -1.1051  -14.9769   24.5610 C   0  0  0  0  0  0  0  0  0  0  0  0
   -2.3300  -15.7499   24.6315 N   0  0  0  0  0  0  0  0  0  0  0  0
   -2.5615  -16.8979   25.9871 C   0  0  0  0  0  0  0  0  0  0  0  0
   -2.0078  -18.1584   26.5851 C   0  0  0  0  0  0  0  0  0  0  0  0
   -0.6847  -18.3698   26.5675 F   0  0  0  0  0  0  0  0  0  0  0  0
   -2.7216  -18.8876   27.5756 C   0  0  0  0  0  0  0  0  0  0  0  0
   -3.7547  -18.1487   28.1404 C   0  0  0  0  0  0  0  0  0  0  0  0
   -3.4494  -16.6832   28.0667 C   0  0  0  0  0  0  0  0  0  0  0  0
   -2.3612  -16.0208   27.1539 C   0  0  0  0  0  0  0  0  0  0  0  0
   -2.0808  -14.5719   26.0840 N   0  0  0  0  0  0  0  0  0  0  0  0
    4.7093  -13.2018   22.1917 C   0  0  0  0  0  0  0  0  0  0  0  0
    5.9775  -12.9194   22.7800 C   0  0  0  0  0  0  0  0  0  0  0  0
    7.1491  -12.7579   22.0143 C   0  0  0  0  0  0  0  0  0  0  0  0
    7.1039  -12.9345   20.6388 C   0  0  0  0  0  0  0  0  0  0  0  0
    5.9042  -13.3362   20.0539 C   0  0  0  0  0  0  0  0  0  0  0  0
    4.7328  -13.4919   20.8262 C   0  0  0  0  0  0  0  0  0  0  0  0
    4.8732   -9.1494   24.3939 H   0  0  0  0  0  0  0  0  0  0  0  0
    5.9802  -10.4912   24.1973 H   0  0  0  0  0  0  0  0  0  0  0  0
    6.0491   -9.1168   23.0689 H   0  0  0  0  0  0  0  0  0  0  0  0
    3.7630   -9.6164   22.3417 H   0  0  0  0  0  0  0  0  0  0  0  0
    4.8975  -10.8359   21.8611 H   0  0  0  0  0  0  0  0  0  0  0  0
    3.8096  -13.0773   23.9744 H   0  0  0  0  0  0  0  0  0  0  0  0
    0.0060  -13.0264   23.5076 H   0  0  0  0  0  0  0  0  0  0  0  0
   -2.4390  -19.8725   27.9108 H   0  0  0  0  0  0  0  0  0  0  0  0
   -4.4194  -18.5485   28.9014 H   0  0  0  0  0  0  0  0  0  0  0  0
   -3.6940  -16.2101   29.0143 H   0  0  0  0  0  0  0  0  0  0  0  0
   -1.7399  -13.7706   26.5826 H   0  0  0  0  0  0  0  0  0  0  0  0
    6.0334  -12.7351   23.8521 H   0  0  0  0  0  0  0  0  0  0  0  0
    8.0823  -12.4932   22.5036 H   0  0  0  0  0  0  0  0  0  0  0  0
    7.9988  -12.8174   20.0351 H   0  0  0  0  0  0  0  0  0  0  0  0
    5.8693  -13.5450   18.9867 H   0  0  0  0  0  0  0  0  0  0  0  0
    3.8360  -13.8487   20.3416 H   0  0  0  0  0  0  0  0  0  0  0  0
  1  2  1  0
  2  3  1  0
  3  4  1  0
  4  5  1  0
  5  6  2  0
  5  7  1  0
  7  8  1  0
  8  9  2  0
  9 10  1  0
 10 11  2  0
 11 12  1  0
 11 13  1  0
 13 14  2  0
 14 15  1  0
 15 16  2  0
 16 17  1  0
  4 18  1  0
 18 19  2  0
 19 20  1  0
 20 21  2  0
 21 22  1  0
 22 23  2  0
 17  8  1  0
 23 18  1  0
 16 10  1  0
  1 24  1  0
  1 25  1  0
  1 26  1  0
  2 27  1  0
  2 28  1  0
  4 29  1  0
  7 30  1  0
 13 31  1  0
 14 32  1  0
 15 33  1  0
 17 34  1  0
 19 35  1  0
 20 36  1  0
 21 37  1  0
 22 38  1  0
 23 39  1  0
M  END
>  <Energy>  (248) 
736.04332065448375

>  <compound_id>  (248) 
77338

>  <target_id>  (248) 
1

>  <reference_id>  (248) 
76

>  <inspiration_ids>  (248) 
[52, 76]

>  <energy_score>  (248) 
615.0568715771477

>  <distance_score>  (248) 
14.30007669138862

>  <path>  (248) 
/opt/xchem-fragalysis-2/maxwin/BulkDock/SCRATCH/511025/C77338-P76/C77338-P76.minimised.mol

>  <scratch_subdir>  (248) 
/opt/xchem-fragalysis-2/maxwin/BulkDock/SCRATCH/511025/C77338-P76

>  <fragmenstein_runtime>  (248) 
10.434251546859741

>  <fragmenstein_outcome>  (248) 
too moved

>  <fragmenstein_mode>  (248) 
expansion

>  <fragmenstein_error>  (248) 


$$$$
C77339-P52
     RDKit          3D

 48 50  0  0  0  0  0  0  0  0999 V2000
   -4.7672  -20.7774   25.3824 C   0  0  0  0  0  0  0  0  0  0  0  0
   -3.8986  -19.7539   26.1321 C   0  0  0  0  0  0  0  0  0  0  0  0
   -3.1120  -18.7837   25.1224 C   0  0  0  0  0  0  0  0  0  0  0  0
   -2.3697  -17.0500   25.3267 N   0  0  0  0  0  0  0  0  0  0  0  0
   -2.2298  -15.3993   24.3846 C   0  0  0  0  0  0  0  0  0  0  0  0
   -1.4592  -13.5520   23.8978 N   0  0  0  0  0  0  0  0  0  0  0  0
    0.2941  -12.9251   23.0222 C   0  0  0  0  0  0  0  0  0  0  0  0
    1.1154  -13.7401   22.5710 O   0  0  0  0  0  0  0  0  0  0  0  0
    1.0917  -11.0058   22.6612 C   0  0  0  0  0  0  0  0  0  0  0  0
    0.1528  -10.4792   21.4093 O   0  0  0  0  0  0  0  0  0  0  0  0
   -0.5939   -9.3763   20.5520 C   0  0  0  0  0  0  0  0  0  0  0  0
    0.1204   -8.5329   19.4682 C   0  0  0  0  0  0  0  0  0  0  0  0
    2.7635  -10.9759   22.0005 C   0  0  0  0  0  0  0  0  0  0  0  0
    3.3174   -9.8699   21.2724 C   0  0  0  0  0  0  0  0  0  0  0  0
    4.6650   -9.7702   20.8509 C   0  0  0  0  0  0  0  0  0  0  0  0
    5.5436  -10.7954   21.1300 C   0  0  0  0  0  0  0  0  0  0  0  0
    5.0523  -11.9090   21.8039 C   0  0  0  0  0  0  0  0  0  0  0  0
    3.6983  -11.9977   22.2255 C   0  0  0  0  0  0  0  0  0  0  0  0
   -0.9923  -16.3097   25.1563 N   0  0  0  0  0  0  0  0  0  0  0  0
   -0.7085  -16.6202   26.4858 C   0  0  0  0  0  0  0  0  0  0  0  0
    0.4896  -16.9522   27.2114 C   0  0  0  0  0  0  0  0  0  0  0  0
    0.6137  -18.1252   28.0153 C   0  0  0  0  0  0  0  0  0  0  0  0
   -0.4078  -19.0604   28.1143 C   0  0  0  0  0  0  0  0  0  0  0  0
   -1.5780  -18.8221   27.3824 C   0  0  0  0  0  0  0  0  0  0  0  0
   -1.7192  -17.4647   26.5028 C   0  0  0  0  0  0  0  0  0  0  0  0
   -5.4355  -21.2923   26.0784 H   0  0  0  0  0  0  0  0  0  0  0  0
   -5.3420  -20.3114   24.5857 H   0  0  0  0  0  0  0  0  0  0  0  0
   -4.1309  -21.5338   24.9088 H   0  0  0  0  0  0  0  0  0  0  0  0
   -3.2157  -20.4406   26.6331 H   0  0  0  0  0  0  0  0  0  0  0  0
   -4.5114  -19.2024   26.8488 H   0  0  0  0  0  0  0  0  0  0  0  0
   -3.9820  -18.5743   24.5494 H   0  0  0  0  0  0  0  0  0  0  0  0
   -2.4178  -19.3515   24.4964 H   0  0  0  0  0  0  0  0  0  0  0  0
   -1.9524  -12.7493   24.2802 H   0  0  0  0  0  0  0  0  0  0  0  0
    1.1804  -10.4213   23.5574 H   0  0  0  0  0  0  0  0  0  0  0  0
   -1.4376   -9.8680   20.0428 H   0  0  0  0  0  0  0  0  0  0  0  0
   -1.1381   -8.6672   21.1530 H   0  0  0  0  0  0  0  0  0  0  0  0
   -0.0239   -7.4666   19.6847 H   0  0  0  0  0  0  0  0  0  0  0  0
   -0.3533   -8.6897   18.4935 H   0  0  0  0  0  0  0  0  0  0  0  0
    1.1917   -8.6951   19.3763 H   0  0  0  0  0  0  0  0  0  0  0  0
    2.7157   -9.0421   20.9378 H   0  0  0  0  0  0  0  0  0  0  0  0
    4.9869   -8.9017   20.2856 H   0  0  0  0  0  0  0  0  0  0  0  0
    6.5777  -10.7574   20.8070 H   0  0  0  0  0  0  0  0  0  0  0  0
    5.7149  -12.7471   22.0117 H   0  0  0  0  0  0  0  0  0  0  0  0
    3.4110  -12.9079   22.7275 H   0  0  0  0  0  0  0  0  0  0  0  0
    1.3753  -16.3341   27.0829 H   0  0  0  0  0  0  0  0  0  0  0  0
    1.5489  -18.2948   28.5465 H   0  0  0  0  0  0  0  0  0  0  0  0
   -0.3276  -19.9122   28.7816 H   0  0  0  0  0  0  0  0  0  0  0  0
   -2.4636  -19.3228   27.7291 H   0  0  0  0  0  0  0  0  0  0  0  0
  1  2  1  0
  2  3  1  0
  3  4  1  0
  4  5  1  0
  5  6  1  0
  6  7  1  0
  7  8  2  0
  7  9  1  0
  9 10  1  0
 10 11  1  0
 11 12  1  0
  9 13  1  0
 13 14  2  0
 14 15  1  0
 15 16  2  0
 16 17  1  0
 17 18  2  0
  5 19  2  0
 19 20  1  0
 20 21  2  0
 21 22  1  0
 22 23  2  0
 23 24  1  0
 24 25  2  0
 25  4  1  0
 18 13  1  0
 25 20  1  0
  1 26  1  0
  1 27  1  0
  1 28  1  0
  2 29  1  0
  2 30  1  0
  3 31  1  0
  3 32  1  0
  6 33  1  0
  9 34  1  0
 11 35  1  0
 11 36  1  0
 12 37  1  0
 12 38  1  0
 12 39  1  0
 14 40  1  0
 15 41  1  0
 16 42  1  0
 17 43  1  0
 18 44  1  0
 21 45  1  0
 22 46  1  0
 23 47  1  0
 24 48  1  0
M  END
>  <Energy>  (249) 
1118.0804119424329

>  <compound_id>  (249) 
77339

>  <target_id>  (249) 
1

>  <reference_id>  (249) 
52

>  <inspiration_ids>  (249) 
[52, 76]

>  <energy_score>  (249) 
1022.7964102992498

>  <distance_score>  (249) 
13.148452389758317

>  <path>  (249) 
/opt/xchem-fragalysis-2/maxwin/BulkDock/SCRATCH/511025/C77339-P52/C77339-P52.minimised.mol

>  <scratch_subdir>  (249) 
/opt/xchem-fragalysis-2/maxwin/BulkDock/SCRATCH/511025/C77339-P52

>  <fragmenstein_runtime>  (249) 
28.92604899406433

>  <fragmenstein_outcome>  (249) 
too moved

>  <fragmenstein_mode>  (249) 
expansion

>  <fragmenstein_error>  (249) 


$$$$
C77339-P76
     RDKit          3D

 48 50  0  0  0  0  0  0  0  0999 V2000
   -6.3177  -16.5933   30.5037 C   0  0  0  0  0  0  0  0  0  0  0  0
   -5.1665  -17.3598   31.1259 C   0  0  0  0  0  0  0  0  0  0  0  0
   -3.7992  -17.2828   30.3799 C   0  0  0  0  0  0  0  0  0  0  0  0
   -2.6436  -17.7284   31.2163 N   0  0  0  0  0  0  0  0  0  0  0  0
   -1.8607  -16.8042   31.9449 C   0  0  0  0  0  0  0  0  0  0  0  0
   -0.9495  -15.8235   31.5375 N   0  0  0  0  0  0  0  0  0  0  0  0
    0.0407  -15.8130   30.4223 C   0  0  0  0  0  0  0  0  0  0  0  0
    0.2435  -16.6141   29.5496 O   0  0  0  0  0  0  0  0  0  0  0  0
    0.9133  -14.4114   30.5088 C   0  0  0  0  0  0  0  0  0  0  0  0
    0.0441  -13.2814   30.3067 O   0  0  0  0  0  0  0  0  0  0  0  0
   -0.4797  -13.2360   28.9758 C   0  0  0  0  0  0  0  0  0  0  0  0
   -1.2490  -11.9425   28.8158 C   0  0  0  0  0  0  0  0  0  0  0  0
    2.3056  -14.1113   29.8022 C   0  0  0  0  0  0  0  0  0  0  0  0
    2.9791  -12.8864   30.0993 C   0  0  0  0  0  0  0  0  0  0  0  0
    4.2757  -12.5764   29.6253 C   0  0  0  0  0  0  0  0  0  0  0  0
    4.9313  -13.4663   28.7841 C   0  0  0  0  0  0  0  0  0  0  0  0
    4.2814  -14.6511   28.4354 C   0  0  0  0  0  0  0  0  0  0  0  0
    2.9983  -14.9766   28.9528 C   0  0  0  0  0  0  0  0  0  0  0  0
   -2.2281  -16.9205   33.2161 N   0  0  0  0  0  0  0  0  0  0  0  0
   -2.8071  -18.1711   33.3435 C   0  0  0  0  0  0  0  0  0  0  0  0
   -3.2920  -18.8473   34.4777 C   0  0  0  0  0  0  0  0  0  0  0  0
   -3.7967  -20.1482   34.3354 C   0  0  0  0  0  0  0  0  0  0  0  0
   -3.8091  -20.7712   33.0878 C   0  0  0  0  0  0  0  0  0  0  0  0
   -3.3698  -20.1009   31.9367 C   0  0  0  0  0  0  0  0  0  0  0  0
   -2.8881  -18.7928   32.1034 C   0  0  0  0  0  0  0  0  0  0  0  0
   -7.1873  -16.6555   31.1586 H   0  0  0  0  0  0  0  0  0  0  0  0
   -6.6040  -16.9581   29.5236 H   0  0  0  0  0  0  0  0  0  0  0  0
   -6.0730  -15.5312   30.4212 H   0  0  0  0  0  0  0  0  0  0  0  0
   -5.0388  -16.9440   32.1336 H   0  0  0  0  0  0  0  0  0  0  0  0
   -5.4700  -18.3988   31.2686 H   0  0  0  0  0  0  0  0  0  0  0  0
   -3.7751  -17.8913   29.4728 H   0  0  0  0  0  0  0  0  0  0  0  0
   -3.5676  -16.2497   30.1112 H   0  0  0  0  0  0  0  0  0  0  0  0
   -0.7845  -15.0248   32.1370 H   0  0  0  0  0  0  0  0  0  0  0  0
    1.1934  -14.3767   31.5728 H   0  0  0  0  0  0  0  0  0  0  0  0
   -1.1516  -14.0836   28.8117 H   0  0  0  0  0  0  0  0  0  0  0  0
    0.3264  -13.2675   28.2362 H   0  0  0  0  0  0  0  0  0  0  0  0
   -1.6761  -11.8702   27.8120 H   0  0  0  0  0  0  0  0  0  0  0  0
   -0.5958  -11.0804   28.9860 H   0  0  0  0  0  0  0  0  0  0  0  0
   -2.0565  -11.8846   29.5524 H   0  0  0  0  0  0  0  0  0  0  0  0
    2.4904  -12.1720   30.7631 H   0  0  0  0  0  0  0  0  0  0  0  0
    4.7522  -11.6451   29.9187 H   0  0  0  0  0  0  0  0  0  0  0  0
    5.9225  -13.2475   28.3994 H   0  0  0  0  0  0  0  0  0  0  0  0
    4.7763  -15.3611   27.7749 H   0  0  0  0  0  0  0  0  0  0  0  0
    2.5647  -15.9418   28.6927 H   0  0  0  0  0  0  0  0  0  0  0  0
   -3.2572  -18.3656   35.4484 H   0  0  0  0  0  0  0  0  0  0  0  0
   -4.1648  -20.6783   35.2102 H   0  0  0  0  0  0  0  0  0  0  0  0
   -4.1846  -21.7879   33.0111 H   0  0  0  0  0  0  0  0  0  0  0  0
   -3.4229  -20.5624   30.9590 H   0  0  0  0  0  0  0  0  0  0  0  0
  1  2  1  0
  2  3  1  0
  3  4  1  0
  4  5  1  0
  5  6  1  0
  6  7  1  0
  7  8  2  0
  7  9  1  0
  9 10  1  0
 10 11  1  0
 11 12  1  0
  9 13  1  0
 13 14  2  0
 14 15  1  0
 15 16  2  0
 16 17  1  0
 17 18  2  0
  5 19  2  0
 19 20  1  0
 20 21  2  0
 21 22  1  0
 22 23  2  0
 23 24  1  0
 24 25  2  0
 25  4  1  0
 18 13  1  0
 25 20  1  0
  1 26  1  0
  1 27  1  0
  1 28  1  0
  2 29  1  0
  2 30  1  0
  3 31  1  0
  3 32  1  0
  6 33  1  0
  9 34  1  0
 11 35  1  0
 11 36  1  0
 12 37  1  0
 12 38  1  0
 12 39  1  0
 14 40  1  0
 15 41  1  0
 16 42  1  0
 17 43  1  0
 18 44  1  0
 21 45  1  0
 22 46  1  0
 23 47  1  0
 24 48  1  0
M  END
>  <Energy>  (250) 
105.25106538306596

>  <compound_id>  (250) 
77339

>  <target_id>  (250) 
1

>  <reference_id>  (250) 
76

>  <inspiration_ids>  (250) 
[52, 76]

>  <energy_score>  (250) 
9.9670637398861

>  <distance_score>  (250) 
14.917938378602543

>  <path>  (250) 
/opt/xchem-fragalysis-2/maxwin/BulkDock/SCRATCH/511025/C77339-P76/C77339-P76.minimised.mol

>  <scratch_subdir>  (250) 
/opt/xchem-fragalysis-2/maxwin/BulkDock/SCRATCH/511025/C77339-P76

>  <fragmenstein_runtime>  (250) 
35.14515566825867

>  <fragmenstein_outcome>  (250) 
too moved

>  <fragmenstein_mode>  (250) 
expansion

>  <fragmenstein_error>  (250) 


$$$$
C4828-P52
     RDKit          3D

 35 37  0  0  0  0  0  0  0  0999 V2000
    1.9860  -13.8046   19.7508 O   0  0  0  0  0  0  0  0  0  0  0  0
    2.5265  -12.8368   20.3357 C   0  0  0  0  0  0  0  0  0  0  0  0
    1.9670  -12.8331   22.3130 C   0  0  0  0  0  0  0  0  0  0  0  0
   -0.1127  -12.9591   22.8060 C   0  0  0  0  0  0  0  0  0  0  0  0
   -1.6203  -13.6231   23.8252 N   0  0  0  0  0  0  0  0  0  0  0  0
   -2.3834  -12.6651   24.6481 C   0  0  0  0  0  0  0  0  0  0  0  0
   -3.7007  -12.6997   24.7699 N   0  0  0  0  0  0  0  0  0  0  0  0
   -4.0620  -13.9552   24.5859 C   0  0  0  0  0  0  0  0  0  0  0  0
   -5.3120  -14.5307   24.9474 C   0  0  0  0  0  0  0  0  0  0  0  0
   -5.4045  -15.8656   25.3344 C   0  0  0  0  0  0  0  0  0  0  0  0
   -4.2369  -16.5768   25.4547 C   0  0  0  0  0  0  0  0  0  0  0  0
   -3.0262  -15.9920   25.0261 C   0  0  0  0  0  0  0  0  0  0  0  0
   -2.9110  -14.6865   24.2558 C   0  0  0  0  0  0  0  0  0  0  0  0
    3.5766  -11.7534   19.7855 N   0  0  0  0  0  0  0  0  0  0  0  0
    4.2509  -11.6622   18.5213 N   0  0  0  0  0  0  0  0  0  0  0  0
    5.3600  -10.9695   18.4399 C   0  0  0  0  0  0  0  0  0  0  0  0
    6.2158  -10.8940   17.2626 C   0  0  0  0  0  0  0  0  0  0  0  0
    6.9413   -9.8197   16.7773 C   0  0  0  0  0  0  0  0  0  0  0  0
    7.7723  -10.1590   15.6683 C   0  0  0  0  0  0  0  0  0  0  0  0
    7.6484  -11.4830   15.3317 C   0  0  0  0  0  0  0  0  0  0  0  0
    6.5351  -12.2957   16.3415 S   0  0  0  0  0  0  0  0  0  0  0  0
    2.2787  -11.8263   22.6565 H   0  0  0  0  0  0  0  0  0  0  0  0
    2.6999  -13.5758   22.5824 H   0  0  0  0  0  0  0  0  0  0  0  0
   -0.7177  -12.3002   22.2350 H   0  0  0  0  0  0  0  0  0  0  0  0
   -0.5212  -13.4206   21.7897 H   0  0  0  0  0  0  0  0  0  0  0  0
   -1.8771  -11.7520   24.5917 H   0  0  0  0  0  0  0  0  0  0  0  0
   -6.1609  -13.8666   25.0884 H   0  0  0  0  0  0  0  0  0  0  0  0
   -6.3507  -16.2745   25.6724 H   0  0  0  0  0  0  0  0  0  0  0  0
   -4.2348  -17.5595   25.9180 H   0  0  0  0  0  0  0  0  0  0  0  0
   -2.1341  -16.5513   25.3035 H   0  0  0  0  0  0  0  0  0  0  0  0
    3.7353  -11.0713   20.4805 H   0  0  0  0  0  0  0  0  0  0  0  0
    5.7176  -10.3960   19.3054 H   0  0  0  0  0  0  0  0  0  0  0  0
    6.9048   -8.8309   17.2071 H   0  0  0  0  0  0  0  0  0  0  0  0
    8.4182   -9.4787   15.1275 H   0  0  0  0  0  0  0  0  0  0  0  0
    8.1456  -12.0141   14.5314 H   0  0  0  0  0  0  0  0  0  0  0  0
  1  2  2  0
  2  3  1  0
  3  4  1  0
  4  5  1  0
  5  6  1  0
  6  7  2  0
  7  8  1  0
  8  9  2  0
  9 10  1  0
 10 11  2  0
 11 12  1  0
 12 13  2  0
  2 14  1  0
 14 15  1  0
 15 16  2  3
 16 17  1  0
 17 18  2  0
 18 19  1  0
 19 20  2  0
 20 21  1  0
 13  5  1  0
 21 17  1  0
 13  8  1  0
  3 22  1  0
  3 23  1  0
  4 24  1  0
  4 25  1  0
  6 26  1  0
  9 27  1  0
 10 28  1  0
 11 29  1  0
 12 30  1  0
 14 31  1  0
 16 32  1  0
 18 33  1  0
 19 34  1  0
 20 35  1  0
M  END
>  <Energy>  (251) 
537.33050614134231

>  <compound_id>  (251) 
4828

>  <target_id>  (251) 
1

>  <reference_id>  (251) 
52

>  <inspiration_ids>  (251) 
[52, 76]

>  <energy_score>  (251) 
441.5049508992613

>  <distance_score>  (251) 
14.492595308283194

>  <path>  (251) 
/opt/xchem-fragalysis-2/maxwin/BulkDock/SCRATCH/511025/C4828-P52/C4828-P52.minimised.mol

>  <scratch_subdir>  (251) 
/opt/xchem-fragalysis-2/maxwin/BulkDock/SCRATCH/511025/C4828-P52

>  <fragmenstein_runtime>  (251) 
14.229103326797485

>  <fragmenstein_outcome>  (251) 
too moved

>  <fragmenstein_mode>  (251) 
expansion

>  <fragmenstein_error>  (251) 


$$$$
C4828-P76
     RDKit          3D

 35 37  0  0  0  0  0  0  0  0999 V2000
    2.0281   -8.3173   18.2350 O   0  0  0  0  0  0  0  0  0  0  0  0
    2.6395   -9.0060   19.0444 C   0  0  0  0  0  0  0  0  0  0  0  0
    1.2717   -9.7998   20.6376 C   0  0  0  0  0  0  0  0  0  0  0  0
    0.5463  -11.1603   22.2483 C   0  0  0  0  0  0  0  0  0  0  0  0
   -0.2136  -12.9847   22.9488 N   0  0  0  0  0  0  0  0  0  0  0  0
   -0.2996  -14.3535   22.6337 C   0  0  0  0  0  0  0  0  0  0  0  0
   -1.3332  -14.9353   23.2852 N   0  0  0  0  0  0  0  0  0  0  0  0
   -1.3412  -14.9663   24.5952 C   0  0  0  0  0  0  0  0  0  0  0  0
   -2.0666  -15.6235   25.6222 C   0  0  0  0  0  0  0  0  0  0  0  0
   -1.6996  -15.4064   26.9391 C   0  0  0  0  0  0  0  0  0  0  0  0
   -0.6622  -14.5299   27.1799 C   0  0  0  0  0  0  0  0  0  0  0  0
   -0.0140  -13.8672   26.0995 C   0  0  0  0  0  0  0  0  0  0  0  0
   -0.3298  -14.0855   24.5684 C   0  0  0  0  0  0  0  0  0  0  0  0
    4.6515   -9.1606   19.0620 N   0  0  0  0  0  0  0  0  0  0  0  0
    5.9503   -8.3473   18.1819 N   0  0  0  0  0  0  0  0  0  0  0  0
    7.3676   -8.4355   19.1964 C   0  0  0  0  0  0  0  0  0  0  0  0
    9.1629   -7.8470   19.8549 C   0  0  0  0  0  0  0  0  0  0  0  0
    9.9114   -6.0146   19.9605 C   0  0  0  0  0  0  0  0  0  0  0  0
   11.6491   -6.1490   20.5118 C   0  0  0  0  0  0  0  0  0  0  0  0
   11.7857   -7.5095   21.3211 C   0  0  0  0  0  0  0  0  0  0  0  0
   10.2811   -8.9517   21.1674 S   0  0  0  0  0  0  0  0  0  0  0  0
    0.3800   -9.1113   20.5554 H   0  0  0  0  0  0  0  0  0  0  0  0
    1.6240   -9.1348   21.4453 H   0  0  0  0  0  0  0  0  0  0  0  0
   -0.3844  -10.6435   22.4512 H   0  0  0  0  0  0  0  0  0  0  0  0
    1.3408  -11.5309   22.9202 H   0  0  0  0  0  0  0  0  0  0  0  0
    0.4237  -14.9631   22.0873 H   0  0  0  0  0  0  0  0  0  0  0  0
   -2.8717  -16.3073   25.3767 H   0  0  0  0  0  0  0  0  0  0  0  0
   -2.2124  -15.9080   27.7528 H   0  0  0  0  0  0  0  0  0  0  0  0
   -0.3482  -14.3159   28.1981 H   0  0  0  0  0  0  0  0  0  0  0  0
    0.7481  -13.1309   26.3609 H   0  0  0  0  0  0  0  0  0  0  0  0
    4.9302   -9.8387   19.7290 H   0  0  0  0  0  0  0  0  0  0  0  0
    7.4136   -9.5308   19.4150 H   0  0  0  0  0  0  0  0  0  0  0  0
    9.3335   -5.1251   19.7786 H   0  0  0  0  0  0  0  0  0  0  0  0
   12.2904   -5.2735   20.5858 H   0  0  0  0  0  0  0  0  0  0  0  0
   12.5850   -7.8371   21.9791 H   0  0  0  0  0  0  0  0  0  0  0  0
  1  2  2  0
  2  3  1  0
  3  4  1  0
  4  5  1  0
  5  6  1  0
  6  7  2  0
  7  8  1  0
  8  9  2  0
  9 10  1  0
 10 11  2  0
 11 12  1  0
 12 13  2  0
  2 14  1  0
 14 15  1  0
 15 16  2  3
 16 17  1  0
 17 18  2  0
 18 19  1  0
 19 20  2  0
 20 21  1  0
 13  5  1  0
 21 17  1  0
 13  8  1  0
  3 22  1  0
  3 23  1  0
  4 24  1  0
  4 25  1  0
  6 26  1  0
  9 27  1  0
 10 28  1  0
 11 29  1  0
 12 30  1  0
 14 31  1  0
 16 32  1  0
 18 33  1  0
 19 34  1  0
 20 35  1  0
M  END
>  <Energy>  (252) 
1440.7114251372445

>  <compound_id>  (252) 
4828

>  <target_id>  (252) 
1

>  <reference_id>  (252) 
76

>  <inspiration_ids>  (252) 
[52, 76]

>  <energy_score>  (252) 
1344.8858698951708

>  <distance_score>  (252) 
13.608391757954035

>  <path>  (252) 
/opt/xchem-fragalysis-2/maxwin/BulkDock/SCRATCH/511025/C4828-P76/C4828-P76.minimised.mol

>  <scratch_subdir>  (252) 
/opt/xchem-fragalysis-2/maxwin/BulkDock/SCRATCH/511025/C4828-P76

>  <fragmenstein_runtime>  (252) 
17.016700744628906

>  <fragmenstein_outcome>  (252) 
too moved

>  <fragmenstein_mode>  (252) 
expansion

>  <fragmenstein_error>  (252) 


$$$$
C77344-P52
     RDKit          3D

 39 41  0  0  0  0  0  0  0  0999 V2000
   -4.1121  -17.1301   17.5337 C   0  0  0  0  0  0  0  0  0  0  0  0
   -3.3252  -16.7088   18.7580 C   0  0  0  0  0  0  0  0  0  0  0  0
   -2.2332  -16.2392   18.6352 O   0  0  0  0  0  0  0  0  0  0  0  0
   -4.0946  -16.9905   19.9302 N   0  0  0  0  0  0  0  0  0  0  0  0
   -3.8342  -16.7087   21.3339 C   0  0  0  0  0  0  0  0  0  0  0  0
   -3.5836  -15.1931   21.5128 C   0  0  0  0  0  0  0  0  0  0  0  0
   -5.0578  -17.3026   22.1485 C   0  0  0  0  0  0  0  0  0  0  0  0
   -6.1412  -17.2706   21.6234 O   0  0  0  0  0  0  0  0  0  0  0  0
   -4.6331  -17.8792   23.4206 N   0  0  0  0  0  0  0  0  0  0  0  0
   -5.3421  -18.6523   24.3723 C   0  0  0  0  0  0  0  0  0  0  0  0
   -4.7573  -18.9274   25.6210 C   0  0  0  0  0  0  0  0  0  0  0  0
   -5.4019  -19.7035   26.6079 C   0  0  0  0  0  0  0  0  0  0  0  0
   -6.6508  -20.2246   26.2767 C   0  0  0  0  0  0  0  0  0  0  0  0
   -7.5533  -21.0015   26.9518 N   0  0  0  0  0  0  0  0  0  0  0  0
   -8.6297  -21.2343   26.1422 C   0  0  0  0  0  0  0  0  0  0  0  0
   -9.7578  -22.0083   26.5446 C   0  0  0  0  0  0  0  0  0  0  0  0
  -10.8758  -22.3481   25.8041 C   0  0  0  0  0  0  0  0  0  0  0  0
  -11.6907  -23.1628   26.6247 C   0  0  0  0  0  0  0  0  0  0  0  0
  -11.0433  -23.2527   27.8316 C   0  0  0  0  0  0  0  0  0  0  0  0
   -9.8739  -22.5659   27.7946 O   0  0  0  0  0  0  0  0  0  0  0  0
   -8.4676  -20.6465   24.9747 N   0  0  0  0  0  0  0  0  0  0  0  0
   -7.2475  -20.0128   25.0426 C   0  0  0  0  0  0  0  0  0  0  0  0
   -6.6035  -19.1988   24.0887 C   0  0  0  0  0  0  0  0  0  0  0  0
   -4.3588  -18.1940   17.5934 H   0  0  0  0  0  0  0  0  0  0  0  0
   -3.5104  -16.9631   16.6353 H   0  0  0  0  0  0  0  0  0  0  0  0
   -5.0270  -16.5358   17.4567 H   0  0  0  0  0  0  0  0  0  0  0  0
   -5.0195  -17.3128   19.6508 H   0  0  0  0  0  0  0  0  0  0  0  0
   -2.9311  -17.2711   21.5881 H   0  0  0  0  0  0  0  0  0  0  0  0
   -3.5685  -14.9307   22.5743 H   0  0  0  0  0  0  0  0  0  0  0  0
   -2.6478  -14.8902   21.0368 H   0  0  0  0  0  0  0  0  0  0  0  0
   -4.3959  -14.6185   21.0529 H   0  0  0  0  0  0  0  0  0  0  0  0
   -3.6589  -17.6460   23.5817 H   0  0  0  0  0  0  0  0  0  0  0  0
   -3.7707  -18.5292   25.8530 H   0  0  0  0  0  0  0  0  0  0  0  0
   -4.9269  -19.8950   27.5624 H   0  0  0  0  0  0  0  0  0  0  0  0
   -7.4613  -21.3509   27.8898 H   0  0  0  0  0  0  0  0  0  0  0  0
  -11.0663  -22.0412   24.7840 H   0  0  0  0  0  0  0  0  0  0  0  0
  -12.6365  -23.6136   26.3612 H   0  0  0  0  0  0  0  0  0  0  0  0
  -11.2651  -23.7446   28.7681 H   0  0  0  0  0  0  0  0  0  0  0  0
   -7.0907  -19.0367   23.1333 H   0  0  0  0  0  0  0  0  0  0  0  0
  1  2  1  0
  2  3  2  0
  2  4  1  0
  4  5  1  0
  5  6  1  0
  5  7  1  0
  7  8  2  0
  7  9  1  0
  9 10  1  0
 10 11  2  0
 11 12  1  0
 12 13  2  0
 13 14  1  0
 14 15  1  0
 15 16  1  0
 16 17  2  0
 17 18  1  0
 18 19  2  0
 19 20  1  0
 15 21  2  0
 21 22  1  0
 22 23  2  0
 23 10  1  0
 22 13  1  0
 20 16  1  0
  1 24  1  0
  1 25  1  0
  1 26  1  0
  4 27  1  0
  5 28  1  0
  6 29  1  0
  6 30  1  0
  6 31  1  0
  9 32  1  0
 11 33  1  0
 12 34  1  0
 14 35  1  0
 17 36  1  0
 18 37  1  0
 19 38  1  0
 23 39  1  0
M  END
>  <Energy>  (253) 
19.762048384587917

>  <compound_id>  (253) 
77344

>  <target_id>  (253) 
1

>  <reference_id>  (253) 
52

>  <inspiration_ids>  (253) 
[52, 76]

>  <energy_score>  (253) 
-32.41756380937045

>  <distance_score>  (253) 
20.028509556134658

>  <path>  (253) 
/opt/xchem-fragalysis-2/maxwin/BulkDock/SCRATCH/511025/C77344-P52/C77344-P52.minimised.mol

>  <scratch_subdir>  (253) 
/opt/xchem-fragalysis-2/maxwin/BulkDock/SCRATCH/511025/C77344-P52

>  <fragmenstein_runtime>  (253) 
41.03679418563843

>  <fragmenstein_outcome>  (253) 
too moved

>  <fragmenstein_mode>  (253) 
expansion

>  <fragmenstein_error>  (253) 


$$$$
C77344-P76
     RDKit          3D

 39 41  0  0  0  0  0  0  0  0999 V2000
    1.7763  -16.4696   29.7977 C   0  0  0  0  0  0  0  0  0  0  0  0
    0.5431  -16.1963   28.9613 C   0  0  0  0  0  0  0  0  0  0  0  0
   -0.0719  -17.1053   28.4871 O   0  0  0  0  0  0  0  0  0  0  0  0
    0.3389  -14.7841   28.8721 N   0  0  0  0  0  0  0  0  0  0  0  0
   -0.7333  -14.0089   28.2573 C   0  0  0  0  0  0  0  0  0  0  0  0
   -0.2079  -12.5895   27.9065 C   0  0  0  0  0  0  0  0  0  0  0  0
   -2.0287  -14.0821   29.1766 C   0  0  0  0  0  0  0  0  0  0  0  0
   -2.5290  -13.0695   29.5883 O   0  0  0  0  0  0  0  0  0  0  0  0
   -2.4363  -15.4872   29.3360 N   0  0  0  0  0  0  0  0  0  0  0  0
   -3.4787  -16.0701   30.0940 C   0  0  0  0  0  0  0  0  0  0  0  0
   -3.6060  -17.4746   30.0633 C   0  0  0  0  0  0  0  0  0  0  0  0
   -4.5569  -18.1719   30.8333 C   0  0  0  0  0  0  0  0  0  0  0  0
   -5.3668  -17.3989   31.6589 C   0  0  0  0  0  0  0  0  0  0  0  0
   -6.3357  -17.7211   32.5736 N   0  0  0  0  0  0  0  0  0  0  0  0
   -6.7997  -16.5627   33.1347 C   0  0  0  0  0  0  0  0  0  0  0  0
   -7.7916  -16.5275   34.1604 C   0  0  0  0  0  0  0  0  0  0  0  0
   -8.4061  -15.4210   34.7219 C   0  0  0  0  0  0  0  0  0  0  0  0
   -9.3403  -15.8963   35.6719 C   0  0  0  0  0  0  0  0  0  0  0  0
   -9.2410  -17.2654   35.6455 C   0  0  0  0  0  0  0  0  0  0  0  0
   -8.3040  -17.6579   34.7464 O   0  0  0  0  0  0  0  0  0  0  0  0
   -6.2236  -15.5104   32.5903 N   0  0  0  0  0  0  0  0  0  0  0  0
   -5.3039  -16.0132   31.6981 C   0  0  0  0  0  0  0  0  0  0  0  0
   -4.3573  -15.3351   30.8976 C   0  0  0  0  0  0  0  0  0  0  0  0
    1.6200  -16.1119   30.8192 H   0  0  0  0  0  0  0  0  0  0  0  0
    2.6466  -15.9763   29.3553 H   0  0  0  0  0  0  0  0  0  0  0  0
    1.9666  -17.5465   29.8297 H   0  0  0  0  0  0  0  0  0  0  0  0
    1.0087  -14.3151   29.4719 H   0  0  0  0  0  0  0  0  0  0  0  0
   -1.0113  -14.5076   27.3224 H   0  0  0  0  0  0  0  0  0  0  0  0
    0.1380  -12.0706   28.8066 H   0  0  0  0  0  0  0  0  0  0  0  0
   -1.0072  -11.9927   27.4588 H   0  0  0  0  0  0  0  0  0  0  0  0
    0.6247  -12.6578   27.2048 H   0  0  0  0  0  0  0  0  0  0  0  0
   -1.8207  -16.0789   28.7794 H   0  0  0  0  0  0  0  0  0  0  0  0
   -2.9319  -18.0600   29.4385 H   0  0  0  0  0  0  0  0  0  0  0  0
   -4.6286  -19.2535   30.8093 H   0  0  0  0  0  0  0  0  0  0  0  0
   -6.7180  -18.6473   32.7370 H   0  0  0  0  0  0  0  0  0  0  0  0
   -8.2037  -14.3940   34.4500 H   0  0  0  0  0  0  0  0  0  0  0  0
  -10.0110  -15.3139   36.2867 H   0  0  0  0  0  0  0  0  0  0  0  0
   -9.7450  -18.0631   36.1718 H   0  0  0  0  0  0  0  0  0  0  0  0
   -4.3059  -14.2540   30.9564 H   0  0  0  0  0  0  0  0  0  0  0  0
  1  2  1  0
  2  3  2  0
  2  4  1  0
  4  5  1  0
  5  6  1  0
  5  7  1  0
  7  8  2  0
  7  9  1  0
  9 10  1  0
 10 11  2  0
 11 12  1  0
 12 13  2  0
 13 14  1  0
 14 15  1  0
 15 16  1  0
 16 17  2  0
 17 18  1  0
 18 19  2  0
 19 20  1  0
 15 21  2  0
 21 22  1  0
 22 23  2  0
 23 10  1  0
 22 13  1  0
 20 16  1  0
  1 24  1  0
  1 25  1  0
  1 26  1  0
  4 27  1  0
  5 28  1  0
  6 29  1  0
  6 30  1  0
  6 31  1  0
  9 32  1  0
 11 33  1  0
 12 34  1  0
 14 35  1  0
 17 36  1  0
 18 37  1  0
 19 38  1  0
 23 39  1  0
M  END
>  <Energy>  (254) 
14.496509701279608

>  <compound_id>  (254) 
77344

>  <target_id>  (254) 
1

>  <reference_id>  (254) 
76

>  <inspiration_ids>  (254) 
[52, 76]

>  <energy_score>  (254) 
-37.68310249267688

>  <distance_score>  (254) 
19.531927277347865

>  <path>  (254) 
/opt/xchem-fragalysis-2/maxwin/BulkDock/SCRATCH/511025/C77344-P76/C77344-P76.minimised.mol

>  <scratch_subdir>  (254) 
/opt/xchem-fragalysis-2/maxwin/BulkDock/SCRATCH/511025/C77344-P76

>  <fragmenstein_runtime>  (254) 
27.43864345550537

>  <fragmenstein_outcome>  (254) 
too moved

>  <fragmenstein_mode>  (254) 
expansion

>  <fragmenstein_error>  (254) 


$$$$
C77345-P52
     RDKit          3D

 39 41  0  0  0  0  0  0  0  0999 V2000
    6.6749  -10.0536   23.6290 C   0  0  0  0  0  0  0  0  0  0  0  0
    6.3357  -10.8402   24.8805 C   0  0  0  0  0  0  0  0  0  0  0  0
    7.2063  -10.8568   25.7202 O   0  0  0  0  0  0  0  0  0  0  0  0
    4.8847  -11.4045   24.9155 N   0  0  0  0  0  0  0  0  0  0  0  0
    3.9195  -12.1832   26.2858 C   0  0  0  0  0  0  0  0  0  0  0  0
    4.6189  -10.4867   27.0453 C   0  0  0  0  0  0  0  0  0  0  0  0
    3.2486  -14.0180   26.9381 C   0  0  0  0  0  0  0  0  0  0  0  0
    3.9770  -14.8463   27.1832 O   0  0  0  0  0  0  0  0  0  0  0  0
    1.6316  -14.2947   27.2664 N   0  0  0  0  0  0  0  0  0  0  0  0
    0.9149  -15.4400   27.9485 C   0  0  0  0  0  0  0  0  0  0  0  0
    1.4186  -16.7045   28.2460 C   0  0  0  0  0  0  0  0  0  0  0  0
    0.6551  -17.6962   28.9713 C   0  0  0  0  0  0  0  0  0  0  0  0
   -0.6430  -17.3762   29.4175 C   0  0  0  0  0  0  0  0  0  0  0  0
   -1.6058  -17.9980   30.1909 N   0  0  0  0  0  0  0  0  0  0  0  0
   -2.6188  -17.0899   30.4118 C   0  0  0  0  0  0  0  0  0  0  0  0
   -3.7422  -17.1757   31.4669 C   0  0  0  0  0  0  0  0  0  0  0  0
   -3.9658  -18.1246   32.4834 C   0  0  0  0  0  0  0  0  0  0  0  0
   -5.0597  -17.6670   33.1875 C   0  0  0  0  0  0  0  0  0  0  0  0
   -5.5260  -16.5090   32.6542 O   0  0  0  0  0  0  0  0  0  0  0  0
   -4.7105  -16.2090   31.6120 C   0  0  0  0  0  0  0  0  0  0  0  0
   -2.4536  -16.0171   29.6690 N   0  0  0  0  0  0  0  0  0  0  0  0
   -1.1927  -16.1379   29.1467 C   0  0  0  0  0  0  0  0  0  0  0  0
   -0.4028  -15.1878   28.4653 C   0  0  0  0  0  0  0  0  0  0  0  0
    6.9878   -9.0524   23.9487 H   0  0  0  0  0  0  0  0  0  0  0  0
    5.8484   -9.8992   22.9530 H   0  0  0  0  0  0  0  0  0  0  0  0
    7.5212  -10.5120   23.1151 H   0  0  0  0  0  0  0  0  0  0  0  0
    4.4113  -11.1459   24.0923 H   0  0  0  0  0  0  0  0  0  0  0  0
    2.8806  -11.9456   26.0865 H   0  0  0  0  0  0  0  0  0  0  0  0
    3.8783   -9.7272   27.4094 H   0  0  0  0  0  0  0  0  0  0  0  0
    5.2258   -9.8361   26.4150 H   0  0  0  0  0  0  0  0  0  0  0  0
    5.0622  -10.5160   28.0675 H   0  0  0  0  0  0  0  0  0  0  0  0
    1.1237  -13.5378   26.9260 H   0  0  0  0  0  0  0  0  0  0  0  0
    2.4288  -16.9587   27.9244 H   0  0  0  0  0  0  0  0  0  0  0  0
    1.1047  -18.6616   29.1877 H   0  0  0  0  0  0  0  0  0  0  0  0
   -1.5116  -18.8936   30.6446 H   0  0  0  0  0  0  0  0  0  0  0  0
   -3.3979  -19.0149   32.7080 H   0  0  0  0  0  0  0  0  0  0  0  0
   -5.6024  -18.0276   34.0509 H   0  0  0  0  0  0  0  0  0  0  0  0
   -4.9315  -15.2905   31.0862 H   0  0  0  0  0  0  0  0  0  0  0  0
   -0.8636  -14.2132   28.3697 H   0  0  0  0  0  0  0  0  0  0  0  0
  1  2  1  0
  2  3  2  0
  2  4  1  0
  4  5  1  0
  5  6  1  0
  5  7  1  0
  7  8  2  0
  7  9  1  0
  9 10  1  0
 10 11  2  0
 11 12  1  0
 12 13  2  0
 13 14  1  0
 14 15  1  0
 15 16  1  0
 16 17  1  0
 17 18  2  0
 18 19  1  0
 19 20  1  0
 15 21  2  0
 21 22  1  0
 22 23  2  0
 23 10  1  0
 22 13  1  0
 20 16  2  0
  1 24  1  0
  1 25  1  0
  1 26  1  0
  4 27  1  0
  5 28  1  0
  6 29  1  0
  6 30  1  0
  6 31  1  0
  9 32  1  0
 11 33  1  0
 12 34  1  0
 14 35  1  0
 17 36  1  0
 18 37  1  0
 20 38  1  0
 23 39  1  0
M  END
>  <Energy>  (255) 
300.15226263963791

>  <compound_id>  (255) 
77345

>  <target_id>  (255) 
1

>  <reference_id>  (255) 
52

>  <inspiration_ids>  (255) 
[52, 76]

>  <energy_score>  (255) 
266.060304288672

>  <distance_score>  (255) 
15.97658741501394

>  <path>  (255) 
/opt/xchem-fragalysis-2/maxwin/BulkDock/SCRATCH/511025/C77345-P52/C77345-P52.minimised.mol

>  <scratch_subdir>  (255) 
/opt/xchem-fragalysis-2/maxwin/BulkDock/SCRATCH/511025/C77345-P52

>  <fragmenstein_runtime>  (255) 
17.1087863445282

>  <fragmenstein_outcome>  (255) 
too moved

>  <fragmenstein_mode>  (255) 
expansion

>  <fragmenstein_error>  (255) 


$$$$
C77345-P76
     RDKit          3D

 39 41  0  0  0  0  0  0  0  0999 V2000
   -2.3485  -20.5990   22.8668 C   0  0  0  0  0  0  0  0  0  0  0  0
   -3.2473  -19.4308   22.5240 C   0  0  0  0  0  0  0  0  0  0  0  0
   -4.2063  -19.5281   21.8698 O   0  0  0  0  0  0  0  0  0  0  0  0
   -2.6081  -18.1871   23.1877 N   0  0  0  0  0  0  0  0  0  0  0  0
   -3.0758  -16.8089   23.2618 C   0  0  0  0  0  0  0  0  0  0  0  0
   -1.9388  -15.6710   22.5359 C   0  0  0  0  0  0  0  0  0  0  0  0
   -3.9363  -16.5093   24.7070 C   0  0  0  0  0  0  0  0  0  0  0  0
   -4.4287  -15.4385   24.8402 O   0  0  0  0  0  0  0  0  0  0  0  0
   -4.0164  -17.8186   25.6482 N   0  0  0  0  0  0  0  0  0  0  0  0
   -4.7994  -18.0683   26.8745 C   0  0  0  0  0  0  0  0  0  0  0  0
   -6.0315  -17.4639   27.1645 C   0  0  0  0  0  0  0  0  0  0  0  0
   -6.7164  -17.5534   28.4100 C   0  0  0  0  0  0  0  0  0  0  0  0
   -6.0290  -18.1478   29.4498 C   0  0  0  0  0  0  0  0  0  0  0  0
   -6.1706  -18.1648   30.8130 N   0  0  0  0  0  0  0  0  0  0  0  0
   -5.1872  -18.9620   31.3369 C   0  0  0  0  0  0  0  0  0  0  0  0
   -4.9386  -19.2376   32.8427 C   0  0  0  0  0  0  0  0  0  0  0  0
   -3.8977  -20.0174   33.3993 C   0  0  0  0  0  0  0  0  0  0  0  0
   -4.0708  -19.9628   34.7624 C   0  0  0  0  0  0  0  0  0  0  0  0
   -5.1518  -19.2000   35.0761 O   0  0  0  0  0  0  0  0  0  0  0  0
   -5.6805  -18.7665   33.8988 C   0  0  0  0  0  0  0  0  0  0  0  0
   -4.4151  -19.4384   30.3787 N   0  0  0  0  0  0  0  0  0  0  0  0
   -4.8830  -18.8916   29.2066 C   0  0  0  0  0  0  0  0  0  0  0  0
   -4.3373  -18.9508   27.8850 C   0  0  0  0  0  0  0  0  0  0  0  0
   -1.3346  -20.4114   22.5026 H   0  0  0  0  0  0  0  0  0  0  0  0
   -2.7304  -21.5045   22.3863 H   0  0  0  0  0  0  0  0  0  0  0  0
   -2.3379  -20.7545   23.9491 H   0  0  0  0  0  0  0  0  0  0  0  0
   -1.8214  -18.4736   23.7549 H   0  0  0  0  0  0  0  0  0  0  0  0
   -3.8995  -16.7865   22.5314 H   0  0  0  0  0  0  0  0  0  0  0  0
   -1.5707  -15.1687   23.4095 H   0  0  0  0  0  0  0  0  0  0  0  0
   -2.5567  -15.0894   21.8503 H   0  0  0  0  0  0  0  0  0  0  0  0
   -1.2293  -16.2621   21.9566 H   0  0  0  0  0  0  0  0  0  0  0  0
   -3.4103  -18.5389   25.2807 H   0  0  0  0  0  0  0  0  0  0  0  0
   -6.4762  -16.8262   26.3976 H   0  0  0  0  0  0  0  0  0  0  0  0
   -7.6226  -16.9893   28.5321 H   0  0  0  0  0  0  0  0  0  0  0  0
   -6.9179  -17.7717   31.3589 H   0  0  0  0  0  0  0  0  0  0  0  0
   -3.1230  -20.5468   32.8639 H   0  0  0  0  0  0  0  0  0  0  0  0
   -3.5408  -20.3882   35.6026 H   0  0  0  0  0  0  0  0  0  0  0  0
   -6.5678  -18.1565   33.9846 H   0  0  0  0  0  0  0  0  0  0  0  0
   -3.4148  -19.5065   27.7532 H   0  0  0  0  0  0  0  0  0  0  0  0
  1  2  1  0
  2  3  2  0
  2  4  1  0
  4  5  1  0
  5  6  1  0
  5  7  1  0
  7  8  2  0
  7  9  1  0
  9 10  1  0
 10 11  2  0
 11 12  1  0
 12 13  2  0
 13 14  1  0
 14 15  1  0
 15 16  1  0
 16 17  1  0
 17 18  2  0
 18 19  1  0
 19 20  1  0
 15 21  2  0
 21 22  1  0
 22 23  2  0
 23 10  1  0
 22 13  1  0
 20 16  2  0
  1 24  1  0
  1 25  1  0
  1 26  1  0
  4 27  1  0
  5 28  1  0
  6 29  1  0
  6 30  1  0
  6 31  1  0
  9 32  1  0
 11 33  1  0
 12 34  1  0
 14 35  1  0
 17 36  1  0
 18 37  1  0
 20 38  1  0
 23 39  1  0
M  END
>  <Energy>  (256) 
80.694219446903034

>  <compound_id>  (256) 
77345

>  <target_id>  (256) 
1

>  <reference_id>  (256) 
76

>  <inspiration_ids>  (256) 
[52, 76]

>  <energy_score>  (256) 
34.516514952696525

>  <distance_score>  (256) 
20.237278718870932

>  <path>  (256) 
/opt/xchem-fragalysis-2/maxwin/BulkDock/SCRATCH/511025/C77345-P76/C77345-P76.minimised.mol

>  <scratch_subdir>  (256) 
/opt/xchem-fragalysis-2/maxwin/BulkDock/SCRATCH/511025/C77345-P76

>  <fragmenstein_runtime>  (256) 
9.261987209320068

>  <fragmenstein_outcome>  (256) 
too moved

>  <fragmenstein_mode>  (256) 
expansion

>  <fragmenstein_error>  (256) 


$$$$
C77347-P52
     RDKit          3D

 45 48  0  0  0  0  0  0  0  0999 V2000
   -9.5105  -24.0667   30.3578 C   0  0  0  0  0  0  0  0  0  0  0  0
   -8.7667  -23.4520   31.3987 O   0  0  0  0  0  0  0  0  0  0  0  0
   -7.9641  -22.4866   30.9324 C   0  0  0  0  0  0  0  0  0  0  0  0
   -6.8781  -21.0214   32.1159 C   0  0  0  0  0  0  0  0  0  0  0  0
   -6.4695  -19.1564   31.2732 C   0  0  0  0  0  0  0  0  0  0  0  0
   -6.6409  -18.2378   29.3560 C   0  0  0  0  0  0  0  0  0  0  0  0
   -6.0775  -16.8973   28.4831 N   0  0  0  0  0  0  0  0  0  0  0  0
   -5.1682  -17.1980   27.3079 C   0  0  0  0  0  0  0  0  0  0  0  0
   -3.1984  -15.8449   26.6721 S   0  0  0  0  0  0  0  0  0  0  0  0
   -2.9001  -14.7138   24.4861 C   0  0  0  0  0  0  0  0  0  0  0  0
   -2.5332  -13.2692   25.2594 C   0  0  0  0  0  0  0  0  0  0  0  0
   -1.6478  -14.1193   22.9777 C   0  0  0  0  0  0  0  0  0  0  0  0
   -0.9360  -13.1310   23.2358 O   0  0  0  0  0  0  0  0  0  0  0  0
   -0.9667  -14.7161   21.1052 C   0  0  0  0  0  0  0  0  0  0  0  0
   -0.4402  -15.9737   20.5069 C   0  0  0  0  0  0  0  0  0  0  0  0
   -0.4204  -16.4622   19.1074 C   0  0  0  0  0  0  0  0  0  0  0  0
   -1.0090  -15.8178   18.0623 C   0  0  0  0  0  0  0  0  0  0  0  0
   -2.0530  -15.0064   18.3873 C   0  0  0  0  0  0  0  0  0  0  0  0
   -2.1768  -14.5884   19.7834 C   0  0  0  0  0  0  0  0  0  0  0  0
   -2.5245  -14.3229   17.1122 C   0  0  0  0  0  0  0  0  0  0  0  0
   -1.2893  -14.4585   16.1915 C   0  0  0  0  0  0  0  0  0  0  0  0
   -0.6414  -15.7863   16.6142 C   0  0  0  0  0  0  0  0  0  0  0  0
   -5.9148  -18.8667   27.0332 N   0  0  0  0  0  0  0  0  0  0  0  0
   -6.9359  -19.8204   28.1704 C   0  0  0  0  0  0  0  0  0  0  0  0
   -7.8225  -21.5199   28.9849 C   0  0  0  0  0  0  0  0  0  0  0  0
  -10.1215  -24.8582   30.8025 H   0  0  0  0  0  0  0  0  0  0  0  0
  -10.1868  -23.3522   29.8761 H   0  0  0  0  0  0  0  0  0  0  0  0
   -8.8522  -24.5292   29.6169 H   0  0  0  0  0  0  0  0  0  0  0  0
   -7.2706  -20.9925   33.1534 H   0  0  0  0  0  0  0  0  0  0  0  0
   -6.0222  -18.4354   31.9969 H   0  0  0  0  0  0  0  0  0  0  0  0
   -3.8560  -14.5711   24.0127 H   0  0  0  0  0  0  0  0  0  0  0  0
   -2.1440  -13.4381   26.2759 H   0  0  0  0  0  0  0  0  0  0  0  0
   -3.2639  -12.5319   25.4623 H   0  0  0  0  0  0  0  0  0  0  0  0
   -2.0246  -12.5691   24.6486 H   0  0  0  0  0  0  0  0  0  0  0  0
   -0.1941  -16.8152   21.1375 H   0  0  0  0  0  0  0  0  0  0  0  0
    0.0480  -17.4154   18.8734 H   0  0  0  0  0  0  0  0  0  0  0  0
   -2.7069  -13.6353   19.7910 H   0  0  0  0  0  0  0  0  0  0  0  0
   -3.3659  -14.8877   16.6950 H   0  0  0  0  0  0  0  0  0  0  0  0
   -2.8227  -13.2799   17.2450 H   0  0  0  0  0  0  0  0  0  0  0  0
   -1.5632  -14.4506   15.1319 H   0  0  0  0  0  0  0  0  0  0  0  0
   -0.5941  -13.6260   16.3524 H   0  0  0  0  0  0  0  0  0  0  0  0
   -1.0889  -16.6367   16.0900 H   0  0  0  0  0  0  0  0  0  0  0  0
    0.4399  -15.7698   16.4531 H   0  0  0  0  0  0  0  0  0  0  0  0
   -5.3017  -19.4093   26.4625 H   0  0  0  0  0  0  0  0  0  0  0  0
   -8.4117  -22.0081   28.2002 H   0  0  0  0  0  0  0  0  0  0  0  0
  1  2  1  0
  2  3  1  0
  3  4  2  0
  4  5  1  0
  5  6  2  0
  6  7  1  0
  7  8  2  0
  8  9  1  0
  9 10  1  0
 10 11  1  0
 10 12  1  0
 12 13  2  0
 12 14  1  0
 14 15  2  0
 15 16  1  0
 16 17  2  0
 17 18  1  0
 18 19  2  0
 18 20  1  0
 20 21  1  0
 21 22  1  0
  8 23  1  0
 23 24  1  0
 24 25  2  0
 25  3  1  0
 24  6  1  0
 19 14  1  0
 22 17  1  0
  1 26  1  0
  1 27  1  0
  1 28  1  0
  4 29  1  0
  5 30  1  0
 10 31  1  0
 11 32  1  0
 11 33  1  0
 11 34  1  0
 15 35  1  0
 16 36  1  0
 19 37  1  0
 20 38  1  0
 20 39  1  0
 21 40  1  0
 21 41  1  0
 22 42  1  0
 22 43  1  0
 23 44  1  0
 25 45  1  0
M  END
>  <Energy>  (257) 
2093.1959218478105

>  <compound_id>  (257) 
77347

>  <target_id>  (257) 
1

>  <reference_id>  (257) 
52

>  <inspiration_ids>  (257) 
[52, 76]

>  <energy_score>  (257) 
1999.4202270113783

>  <distance_score>  (257) 
16.946431317094184

>  <path>  (257) 
/opt/xchem-fragalysis-2/maxwin/BulkDock/SCRATCH/511025/C77347-P52/C77347-P52.minimised.mol

>  <scratch_subdir>  (257) 
/opt/xchem-fragalysis-2/maxwin/BulkDock/SCRATCH/511025/C77347-P52

>  <fragmenstein_runtime>  (257) 
31.842538356781006

>  <fragmenstein_outcome>  (257) 
too moved

>  <fragmenstein_mode>  (257) 
expansion

>  <fragmenstein_error>  (257) 


$$$$
C77347-P76
     RDKit          3D

 45 48  0  0  0  0  0  0  0  0999 V2000
    9.3426  -17.6957   26.4719 C   0  0  0  0  0  0  0  0  0  0  0  0
    8.6162  -16.8781   25.5612 O   0  0  0  0  0  0  0  0  0  0  0  0
    8.4552  -15.5636   25.9086 C   0  0  0  0  0  0  0  0  0  0  0  0
    8.8295  -14.9866   27.1231 C   0  0  0  0  0  0  0  0  0  0  0  0
    8.6815  -13.5974   27.3481 C   0  0  0  0  0  0  0  0  0  0  0  0
    8.2143  -12.7725   26.3135 C   0  0  0  0  0  0  0  0  0  0  0  0
    8.1216  -11.3869   26.2255 N   0  0  0  0  0  0  0  0  0  0  0  0
    7.9964  -11.1371   24.9383 C   0  0  0  0  0  0  0  0  0  0  0  0
    8.0351   -9.6097   24.0562 S   0  0  0  0  0  0  0  0  0  0  0  0
    9.8297   -9.0102   23.9303 C   0  0  0  0  0  0  0  0  0  0  0  0
   10.2274   -8.4769   25.3015 C   0  0  0  0  0  0  0  0  0  0  0  0
   10.0090   -7.8749   22.8067 C   0  0  0  0  0  0  0  0  0  0  0  0
    9.0648   -7.4795   22.1188 O   0  0  0  0  0  0  0  0  0  0  0  0
   11.3845   -7.2575   22.5072 C   0  0  0  0  0  0  0  0  0  0  0  0
   12.5811   -7.9073   22.8577 C   0  0  0  0  0  0  0  0  0  0  0  0
   13.8434   -7.3832   22.4999 C   0  0  0  0  0  0  0  0  0  0  0  0
   13.9174   -6.2124   21.7640 C   0  0  0  0  0  0  0  0  0  0  0  0
   12.7469   -5.5648   21.3843 C   0  0  0  0  0  0  0  0  0  0  0  0
   11.4866   -6.0534   21.7663 C   0  0  0  0  0  0  0  0  0  0  0  0
   13.0885   -4.4490   20.4454 C   0  0  0  0  0  0  0  0  0  0  0  0
   14.5664   -4.1959   20.7436 C   0  0  0  0  0  0  0  0  0  0  0  0
   15.1308   -5.5536   21.1693 C   0  0  0  0  0  0  0  0  0  0  0  0
    7.7628  -12.2969   24.2510 N   0  0  0  0  0  0  0  0  0  0  0  0
    7.9074  -13.3718   25.1013 C   0  0  0  0  0  0  0  0  0  0  0  0
    7.9350  -14.7606   24.8863 C   0  0  0  0  0  0  0  0  0  0  0  0
    8.8059  -17.8100   27.4182 H   0  0  0  0  0  0  0  0  0  0  0  0
    9.4382  -18.6892   26.0234 H   0  0  0  0  0  0  0  0  0  0  0  0
   10.3527  -17.3055   26.6356 H   0  0  0  0  0  0  0  0  0  0  0  0
    9.2309  -15.5832   27.9366 H   0  0  0  0  0  0  0  0  0  0  0  0
    8.9897  -13.1583   28.2914 H   0  0  0  0  0  0  0  0  0  0  0  0
   10.4334   -9.8739   23.6355 H   0  0  0  0  0  0  0  0  0  0  0  0
    9.6197   -7.6092   25.5835 H   0  0  0  0  0  0  0  0  0  0  0  0
   11.2703   -8.1482   25.3193 H   0  0  0  0  0  0  0  0  0  0  0  0
   10.1237   -9.2411   26.0789 H   0  0  0  0  0  0  0  0  0  0  0  0
   12.5683   -8.8524   23.3944 H   0  0  0  0  0  0  0  0  0  0  0  0
   14.7499   -7.9199   22.7696 H   0  0  0  0  0  0  0  0  0  0  0  0
   10.5884   -5.5360   21.4347 H   0  0  0  0  0  0  0  0  0  0  0  0
   12.9588   -4.7690   19.4079 H   0  0  0  0  0  0  0  0  0  0  0  0
   12.4985   -3.5745   20.6556 H   0  0  0  0  0  0  0  0  0  0  0  0
   14.6534   -3.4882   21.5795 H   0  0  0  0  0  0  0  0  0  0  0  0
   15.1017   -3.7631   19.8931 H   0  0  0  0  0  0  0  0  0  0  0  0
   15.9406   -5.4434   21.8957 H   0  0  0  0  0  0  0  0  0  0  0  0
   15.4784   -6.1261   20.3030 H   0  0  0  0  0  0  0  0  0  0  0  0
    7.6766  -12.3357   23.2485 H   0  0  0  0  0  0  0  0  0  0  0  0
    7.7251  -15.1916   23.9148 H   0  0  0  0  0  0  0  0  0  0  0  0
  1  2  1  0
  2  3  1  0
  3  4  2  0
  4  5  1  0
  5  6  2  0
  6  7  1  0
  7  8  2  0
  8  9  1  0
  9 10  1  0
 10 11  1  0
 10 12  1  0
 12 13  2  0
 12 14  1  0
 14 15  2  0
 15 16  1  0
 16 17  2  0
 17 18  1  0
 18 19  2  0
 18 20  1  0
 20 21  1  0
 21 22  1  0
  8 23  1  0
 23 24  1  0
 24 25  2  0
 25  3  1  0
 24  6  1  0
 19 14  1  0
 22 17  1  0
  1 26  1  0
  1 27  1  0
  1 28  1  0
  4 29  1  0
  5 30  1  0
 10 31  1  0
 11 32  1  0
 11 33  1  0
 11 34  1  0
 15 35  1  0
 16 36  1  0
 19 37  1  0
 20 38  1  0
 20 39  1  0
 21 40  1  0
 21 41  1  0
 22 42  1  0
 22 43  1  0
 23 44  1  0
 25 45  1  0
M  END
>  <Energy>  (258) 
73.975310104785066

>  <compound_id>  (258) 
77347

>  <target_id>  (258) 
1

>  <reference_id>  (258) 
76

>  <inspiration_ids>  (258) 
[52, 76]

>  <energy_score>  (258) 
-19.800384731669283

>  <distance_score>  (258) 
16.352705894722828

>  <path>  (258) 
/opt/xchem-fragalysis-2/maxwin/BulkDock/SCRATCH/511025/C77347-P76/C77347-P76.minimised.mol

>  <scratch_subdir>  (258) 
/opt/xchem-fragalysis-2/maxwin/BulkDock/SCRATCH/511025/C77347-P76

>  <fragmenstein_runtime>  (258) 
15.269949913024902

>  <fragmenstein_outcome>  (258) 
too moved

>  <fragmenstein_mode>  (258) 
expansion

>  <fragmenstein_error>  (258) 


$$$$
C77348-P52
     RDKit          3D

 38 40  0  0  0  0  0  0  0  0999 V2000
   -8.3693  -21.9024   28.0603 C   0  0  0  0  0  0  0  0  0  0  0  0
   -7.1658  -21.8292   27.1532 O   0  0  0  0  0  0  0  0  0  0  0  0
   -6.2599  -20.8776   26.8272 C   0  0  0  0  0  0  0  0  0  0  0  0
   -6.4978  -19.6172   27.2168 C   0  0  0  0  0  0  0  0  0  0  0  0
   -5.4069  -18.8238   27.4444 C   0  0  0  0  0  0  0  0  0  0  0  0
   -4.1161  -19.1417   26.9531 C   0  0  0  0  0  0  0  0  0  0  0  0
   -2.8825  -18.4697   27.0260 N   0  0  0  0  0  0  0  0  0  0  0  0
   -2.5072  -18.1868   25.7707 C   0  0  0  0  0  0  0  0  0  0  0  0
   -2.3066  -16.0474   25.1416 S   0  0  0  0  0  0  0  0  0  0  0  0
   -1.4772  -14.1079   23.6750 C   0  0  0  0  0  0  0  0  0  0  0  0
   -1.3687  -13.8186   21.9826 C   0  0  0  0  0  0  0  0  0  0  0  0
    0.2491  -12.8798   23.4948 C   0  0  0  0  0  0  0  0  0  0  0  0
    1.0269  -13.3854   22.4876 O   0  0  0  0  0  0  0  0  0  0  0  0
    1.8670  -11.8186   22.9102 C   0  0  0  0  0  0  0  0  0  0  0  0
    1.9512  -10.7901   21.9113 C   0  0  0  0  0  0  0  0  0  0  0  0
    3.0036  -10.4845   20.8987 C   0  0  0  0  0  0  0  0  0  0  0  0
    4.2451  -11.0742   20.9514 C   0  0  0  0  0  0  0  0  0  0  0  0
    4.4152  -11.9625   21.9854 C   0  0  0  0  0  0  0  0  0  0  0  0
    3.3089  -12.3158   22.8641 C   0  0  0  0  0  0  0  0  0  0  0  0
   -3.1268  -19.4192   25.0909 N   0  0  0  0  0  0  0  0  0  0  0  0
   -4.1026  -20.0433   25.9309 C   0  0  0  0  0  0  0  0  0  0  0  0
   -5.1115  -21.0774   25.9656 C   0  0  0  0  0  0  0  0  0  0  0  0
   -8.2990  -22.4876   28.9661 H   0  0  0  0  0  0  0  0  0  0  0  0
   -9.0877  -22.5889   27.5595 H   0  0  0  0  0  0  0  0  0  0  0  0
   -8.9480  -21.0097   28.2448 H   0  0  0  0  0  0  0  0  0  0  0  0
   -7.4852  -19.2503   27.4212 H   0  0  0  0  0  0  0  0  0  0  0  0
   -5.6130  -17.8607   27.8919 H   0  0  0  0  0  0  0  0  0  0  0  0
   -2.1413  -13.4395   24.2574 H   0  0  0  0  0  0  0  0  0  0  0  0
   -1.0153  -12.8831   22.3257 H   0  0  0  0  0  0  0  0  0  0  0  0
   -0.8320  -14.6276   21.3587 H   0  0  0  0  0  0  0  0  0  0  0  0
   -0.6078  -13.3623   21.3776 H   0  0  0  0  0  0  0  0  0  0  0  0
    0.9700  -10.4739   21.5802 H   0  0  0  0  0  0  0  0  0  0  0  0
    2.7454   -9.7926   20.1004 H   0  0  0  0  0  0  0  0  0  0  0  0
    5.0235  -10.8563   20.2340 H   0  0  0  0  0  0  0  0  0  0  0  0
    5.3697  -12.4627   22.1288 H   0  0  0  0  0  0  0  0  0  0  0  0
    3.6729  -13.0192   23.6018 H   0  0  0  0  0  0  0  0  0  0  0  0
   -2.9325  -19.6743   24.1392 H   0  0  0  0  0  0  0  0  0  0  0  0
   -5.0513  -21.9482   25.3226 H   0  0  0  0  0  0  0  0  0  0  0  0
  1  2  1  0
  2  3  1  0
  3  4  2  0
  4  5  1  0
  5  6  2  0
  6  7  1  0
  7  8  2  0
  8  9  1  0
  9 10  1  0
 10 11  1  0
 10 12  1  0
 12 13  2  0
 12 14  1  0
 14 15  2  0
 15 16  1  0
 16 17  2  0
 17 18  1  0
 18 19  2  0
  8 20  1  0
 20 21  1  0
 21 22  2  0
 22  3  1  0
 21  6  1  0
 19 14  1  0
  1 23  1  0
  1 24  1  0
  1 25  1  0
  4 26  1  0
  5 27  1  0
 10 28  1  0
 11 29  1  0
 11 30  1  0
 11 31  1  0
 15 32  1  0
 16 33  1  0
 17 34  1  0
 18 35  1  0
 19 36  1  0
 20 37  1  0
 22 38  1  0
M  END
>  <Energy>  (259) 
979.2496027493969

>  <compound_id>  (259) 
77348

>  <target_id>  (259) 
1

>  <reference_id>  (259) 
52

>  <inspiration_ids>  (259) 
[52, 76]

>  <energy_score>  (259) 
901.1497643320884

>  <distance_score>  (259) 
12.704633403674666

>  <path>  (259) 
/opt/xchem-fragalysis-2/maxwin/BulkDock/SCRATCH/511025/C77348-P52/C77348-P52.minimised.mol

>  <scratch_subdir>  (259) 
/opt/xchem-fragalysis-2/maxwin/BulkDock/SCRATCH/511025/C77348-P52

>  <fragmenstein_runtime>  (259) 
21.285701751708984

>  <fragmenstein_outcome>  (259) 
too moved

>  <fragmenstein_mode>  (259) 
expansion

>  <fragmenstein_error>  (259) 


$$$$
C77348-P76
     RDKit          3D

 38 40  0  0  0  0  0  0  0  0999 V2000
  -10.0524  -21.1424   28.3382 C   0  0  0  0  0  0  0  0  0  0  0  0
   -9.0872  -19.4701   28.3129 O   0  0  0  0  0  0  0  0  0  0  0  0
   -7.7707  -18.6890   28.3819 C   0  0  0  0  0  0  0  0  0  0  0  0
   -7.9009  -17.3948   28.8967 C   0  0  0  0  0  0  0  0  0  0  0  0
   -6.9105  -16.8230   29.7389 C   0  0  0  0  0  0  0  0  0  0  0  0
   -5.5924  -17.3116   29.6365 C   0  0  0  0  0  0  0  0  0  0  0  0
   -4.4136  -16.5598   29.8337 N   0  0  0  0  0  0  0  0  0  0  0  0
   -3.7815  -16.6555   28.6583 C   0  0  0  0  0  0  0  0  0  0  0  0
   -2.2573  -15.4769   27.7178 S   0  0  0  0  0  0  0  0  0  0  0  0
   -1.2144  -13.8989   28.5707 C   0  0  0  0  0  0  0  0  0  0  0  0
   -1.3296  -12.7067   27.6140 C   0  0  0  0  0  0  0  0  0  0  0  0
    0.3561  -14.1913   28.8630 C   0  0  0  0  0  0  0  0  0  0  0  0
    0.6936  -15.3125   29.2754 O   0  0  0  0  0  0  0  0  0  0  0  0
    1.5240  -13.1805   28.9308 C   0  0  0  0  0  0  0  0  0  0  0  0
    1.4049  -11.8339   29.2747 C   0  0  0  0  0  0  0  0  0  0  0  0
    2.5500  -11.0968   29.6716 C   0  0  0  0  0  0  0  0  0  0  0  0
    3.8315  -11.6566   29.7070 C   0  0  0  0  0  0  0  0  0  0  0  0
    3.9831  -12.9734   29.3035 C   0  0  0  0  0  0  0  0  0  0  0  0
    2.8436  -13.7173   28.9295 C   0  0  0  0  0  0  0  0  0  0  0  0
   -4.0931  -18.0142   28.2559 N   0  0  0  0  0  0  0  0  0  0  0  0
   -5.3936  -18.3198   28.6891 C   0  0  0  0  0  0  0  0  0  0  0  0
   -6.4630  -19.0271   28.0309 C   0  0  0  0  0  0  0  0  0  0  0  0
  -10.7595  -21.3024   27.5030 H   0  0  0  0  0  0  0  0  0  0  0  0
   -9.4154  -22.0493   28.3132 H   0  0  0  0  0  0  0  0  0  0  0  0
  -10.5987  -21.0646   29.2957 H   0  0  0  0  0  0  0  0  0  0  0  0
   -8.8495  -16.8837   28.7696 H   0  0  0  0  0  0  0  0  0  0  0  0
   -7.0868  -15.8720   30.2292 H   0  0  0  0  0  0  0  0  0  0  0  0
   -1.6933  -13.6646   29.5058 H   0  0  0  0  0  0  0  0  0  0  0  0
   -0.4150  -12.5625   27.0357 H   0  0  0  0  0  0  0  0  0  0  0  0
   -1.4893  -11.7881   28.1881 H   0  0  0  0  0  0  0  0  0  0  0  0
   -2.1550  -12.7805   26.9015 H   0  0  0  0  0  0  0  0  0  0  0  0
    0.4325  -11.3616   29.3633 H   0  0  0  0  0  0  0  0  0  0  0  0
    2.4303  -10.0860   30.0324 H   0  0  0  0  0  0  0  0  0  0  0  0
    4.6852  -11.0782   30.0466 H   0  0  0  0  0  0  0  0  0  0  0  0
    4.9586  -13.4526   29.3143 H   0  0  0  0  0  0  0  0  0  0  0  0
    2.9833  -14.7748   28.7002 H   0  0  0  0  0  0  0  0  0  0  0  0
   -3.6586  -18.4265   27.4467 H   0  0  0  0  0  0  0  0  0  0  0  0
   -6.2358  -19.7462   27.2500 H   0  0  0  0  0  0  0  0  0  0  0  0
  1  2  1  0
  2  3  1  0
  3  4  2  0
  4  5  1  0
  5  6  2  0
  6  7  1  0
  7  8  2  0
  8  9  1  0
  9 10  1  0
 10 11  1  0
 10 12  1  0
 12 13  2  0
 12 14  1  0
 14 15  2  0
 15 16  1  0
 16 17  2  0
 17 18  1  0
 18 19  2  0
  8 20  1  0
 20 21  1  0
 21 22  2  0
 22  3  1  0
 21  6  1  0
 19 14  1  0
  1 23  1  0
  1 24  1  0
  1 25  1  0
  4 26  1  0
  5 27  1  0
 10 28  1  0
 11 29  1  0
 11 30  1  0
 11 31  1  0
 15 32  1  0
 16 33  1  0
 17 34  1  0
 18 35  1  0
 19 36  1  0
 20 37  1  0
 22 38  1  0
M  END
>  <Energy>  (260) 
320.12287011516986

>  <compound_id>  (260) 
77348

>  <target_id>  (260) 
1

>  <reference_id>  (260) 
76

>  <inspiration_ids>  (260) 
[52, 76]

>  <energy_score>  (260) 
242.0230316978524

>  <distance_score>  (260) 
14.750343019246936

>  <path>  (260) 
/opt/xchem-fragalysis-2/maxwin/BulkDock/SCRATCH/511025/C77348-P76/C77348-P76.minimised.mol

>  <scratch_subdir>  (260) 
/opt/xchem-fragalysis-2/maxwin/BulkDock/SCRATCH/511025/C77348-P76

>  <fragmenstein_runtime>  (260) 
13.399422407150269

>  <fragmenstein_outcome>  (260) 
too moved

>  <fragmenstein_mode>  (260) 
expansion

>  <fragmenstein_error>  (260) 


$$$$
C77349-P52
     RDKit          3D

 37 39  0  0  0  0  0  0  0  0999 V2000
    0.3034  -12.8843   23.1973 C   0  0  0  0  0  0  0  0  0  0  0  0
   -1.1699  -13.0722   22.7116 C   0  0  0  0  0  0  0  0  0  0  0  0
   -3.4052  -14.1405   23.2641 S   0  0  0  0  0  0  0  0  0  0  0  0
   -5.5273  -13.2558   22.8129 C   0  0  0  0  0  0  0  0  0  0  0  0
   -6.8205  -14.0957   23.2572 N   0  0  0  0  0  0  0  0  0  0  0  0
   -7.6692  -13.8980   24.6038 C   0  0  0  0  0  0  0  0  0  0  0  0
   -8.7795  -14.5969   25.2863 C   0  0  0  0  0  0  0  0  0  0  0  0
   -9.1880  -14.2695   26.5632 C   0  0  0  0  0  0  0  0  0  0  0  0
   -8.4937  -13.2386   27.1410 C   0  0  0  0  0  0  0  0  0  0  0  0
   -7.5718  -12.3770   26.3920 C   0  0  0  0  0  0  0  0  0  0  0  0
   -7.2181  -12.5981   25.0425 C   0  0  0  0  0  0  0  0  0  0  0  0
   -6.3137  -11.8839   23.6100 N   0  0  0  0  0  0  0  0  0  0  0  0
   -7.0757  -11.0533   22.7053 C   0  0  0  0  0  0  0  0  0  0  0  0
   -0.8047  -11.3918   21.5395 C   0  0  0  0  0  0  0  0  0  0  0  0
    0.2901  -10.7205   21.6261 O   0  0  0  0  0  0  0  0  0  0  0  0
   -1.7744  -10.2197   20.3272 C   0  0  0  0  0  0  0  0  0  0  0  0
   -1.4811   -8.8201   20.2745 C   0  0  0  0  0  0  0  0  0  0  0  0
   -2.0273   -7.9182   19.3524 C   0  0  0  0  0  0  0  0  0  0  0  0
   -2.8515   -8.4100   18.3661 C   0  0  0  0  0  0  0  0  0  0  0  0
   -3.1271   -9.7807   18.3444 C   0  0  0  0  0  0  0  0  0  0  0  0
   -2.6304  -10.6633   19.3234 C   0  0  0  0  0  0  0  0  0  0  0  0
    1.0868  -11.9918   23.0745 H   0  0  0  0  0  0  0  0  0  0  0  0
    0.3648  -12.5042   24.2351 H   0  0  0  0  0  0  0  0  0  0  0  0
    1.0514  -13.4197   22.5929 H   0  0  0  0  0  0  0  0  0  0  0  0
   -1.3794  -12.8071   23.7825 H   0  0  0  0  0  0  0  0  0  0  0  0
   -9.3259  -15.3790   24.7858 H   0  0  0  0  0  0  0  0  0  0  0  0
   -9.9405  -14.8370   27.0944 H   0  0  0  0  0  0  0  0  0  0  0  0
   -8.6258  -13.0908   28.2057 H   0  0  0  0  0  0  0  0  0  0  0  0
   -7.0481  -11.6143   26.9170 H   0  0  0  0  0  0  0  0  0  0  0  0
   -7.8249  -11.4491   22.0097 H   0  0  0  0  0  0  0  0  0  0  0  0
   -7.5031  -10.2405   23.2859 H   0  0  0  0  0  0  0  0  0  0  0  0
   -6.5190  -10.9938   21.8476 H   0  0  0  0  0  0  0  0  0  0  0  0
   -0.7831   -8.3602   20.9343 H   0  0  0  0  0  0  0  0  0  0  0  0
   -1.7414   -6.8716   19.3743 H   0  0  0  0  0  0  0  0  0  0  0  0
   -3.2324   -7.7578   17.5872 H   0  0  0  0  0  0  0  0  0  0  0  0
   -3.6863  -10.1982   17.5126 H   0  0  0  0  0  0  0  0  0  0  0  0
   -2.8455  -11.7068   19.2130 H   0  0  0  0  0  0  0  0  0  0  0  0
  1  2  1  0
  2  3  1  0
  3  4  1  0
  4  5  2  0
  5  6  1  0
  6  7  2  0
  7  8  1  0
  8  9  2  0
  9 10  1  0
 10 11  2  0
 11 12  1  0
 12 13  1  0
  2 14  1  0
 14 15  2  0
 14 16  1  0
 16 17  2  0
 17 18  1  0
 18 19  2  0
 19 20  1  0
 20 21  2  0
 12  4  1  0
 21 16  1  0
 11  6  1  0
  1 22  1  0
  1 23  1  0
  1 24  1  0
  2 25  1  0
  7 26  1  0
  8 27  1  0
  9 28  1  0
 10 29  1  0
 13 30  1  0
 13 31  1  0
 13 32  1  0
 17 33  1  0
 18 34  1  0
 19 35  1  0
 20 36  1  0
 21 37  1  0
M  END
>  <Energy>  (261) 
771.97319103674681

>  <compound_id>  (261) 
77349

>  <target_id>  (261) 
1

>  <reference_id>  (261) 
52

>  <inspiration_ids>  (261) 
[52, 76]

>  <energy_score>  (261) 
684.7644898974497

>  <distance_score>  (261) 
15.143721949681813

>  <path>  (261) 
/opt/xchem-fragalysis-2/maxwin/BulkDock/SCRATCH/511025/C77349-P52/C77349-P52.minimised.mol

>  <scratch_subdir>  (261) 
/opt/xchem-fragalysis-2/maxwin/BulkDock/SCRATCH/511025/C77349-P52

>  <fragmenstein_runtime>  (261) 
14.783243894577026

>  <fragmenstein_outcome>  (261) 
too moved

>  <fragmenstein_mode>  (261) 
expansion

>  <fragmenstein_error>  (261) 


$$$$
C77349-P76
     RDKit          3D

 37 39  0  0  0  0  0  0  0  0999 V2000
   -6.5218  -20.5568   20.8040 C   0  0  0  0  0  0  0  0  0  0  0  0
   -6.0848  -19.1581   21.2443 C   0  0  0  0  0  0  0  0  0  0  0  0
   -6.1452  -18.9570   23.4675 S   0  0  0  0  0  0  0  0  0  0  0  0
   -4.8032  -20.3324   24.8762 C   0  0  0  0  0  0  0  0  0  0  0  0
   -4.7554  -20.3382   26.2132 N   0  0  0  0  0  0  0  0  0  0  0  0
   -3.9593  -21.3846   26.6039 C   0  0  0  0  0  0  0  0  0  0  0  0
   -3.3691  -21.6823   27.8449 C   0  0  0  0  0  0  0  0  0  0  0  0
   -2.6909  -22.8889   28.0282 C   0  0  0  0  0  0  0  0  0  0  0  0
   -2.5592  -23.7739   26.9668 C   0  0  0  0  0  0  0  0  0  0  0  0
   -3.0890  -23.4743   25.7038 C   0  0  0  0  0  0  0  0  0  0  0  0
   -3.7693  -22.2582   25.5496 C   0  0  0  0  0  0  0  0  0  0  0  0
   -4.3982  -21.6553   24.4686 N   0  0  0  0  0  0  0  0  0  0  0  0
   -4.7444  -22.4039   23.2833 C   0  0  0  0  0  0  0  0  0  0  0  0
   -5.2541  -18.3100   19.8541 C   0  0  0  0  0  0  0  0  0  0  0  0
   -6.1194  -18.1052   18.9612 O   0  0  0  0  0  0  0  0  0  0  0  0
   -3.7019  -17.9016   19.1712 C   0  0  0  0  0  0  0  0  0  0  0  0
   -2.4131  -17.6326   19.6954 C   0  0  0  0  0  0  0  0  0  0  0  0
   -1.2894  -17.1037   18.9766 C   0  0  0  0  0  0  0  0  0  0  0  0
   -1.3792  -16.8214   17.6319 C   0  0  0  0  0  0  0  0  0  0  0  0
   -2.5932  -17.0962   17.0248 C   0  0  0  0  0  0  0  0  0  0  0  0
   -3.7073  -17.6116   17.7751 C   0  0  0  0  0  0  0  0  0  0  0  0
   -6.9938  -20.5165   19.8164 H   0  0  0  0  0  0  0  0  0  0  0  0
   -5.6619  -21.2251   20.7073 H   0  0  0  0  0  0  0  0  0  0  0  0
   -7.2468  -20.9892   21.4992 H   0  0  0  0  0  0  0  0  0  0  0  0
   -7.0113  -18.5608   21.1903 H   0  0  0  0  0  0  0  0  0  0  0  0
   -3.3968  -20.9694   28.6532 H   0  0  0  0  0  0  0  0  0  0  0  0
   -2.2429  -23.1171   28.9913 H   0  0  0  0  0  0  0  0  0  0  0  0
   -2.0192  -24.7075   27.1095 H   0  0  0  0  0  0  0  0  0  0  0  0
   -2.9638  -24.1650   24.8763 H   0  0  0  0  0  0  0  0  0  0  0  0
   -3.9055  -22.3457   22.5855 H   0  0  0  0  0  0  0  0  0  0  0  0
   -5.6513  -22.0144   22.8329 H   0  0  0  0  0  0  0  0  0  0  0  0
   -4.9276  -23.4485   23.5513 H   0  0  0  0  0  0  0  0  0  0  0  0
   -2.1543  -17.7827   20.7182 H   0  0  0  0  0  0  0  0  0  0  0  0
   -0.3587  -16.9261   19.5123 H   0  0  0  0  0  0  0  0  0  0  0  0
   -0.5417  -16.4206   17.0733 H   0  0  0  0  0  0  0  0  0  0  0  0
   -2.7267  -16.9026   15.9620 H   0  0  0  0  0  0  0  0  0  0  0  0
   -4.6337  -17.7606   17.2160 H   0  0  0  0  0  0  0  0  0  0  0  0
  1  2  1  0
  2  3  1  0
  3  4  1  0
  4  5  2  0
  5  6  1  0
  6  7  2  0
  7  8  1  0
  8  9  2  0
  9 10  1  0
 10 11  2  0
 11 12  1  0
 12 13  1  0
  2 14  1  0
 14 15  2  0
 14 16  1  0
 16 17  2  0
 17 18  1  0
 18 19  2  0
 19 20  1  0
 20 21  2  0
 12  4  1  0
 21 16  1  0
 11  6  1  0
  1 22  1  0
  1 23  1  0
  1 24  1  0
  2 25  1  0
  7 26  1  0
  8 27  1  0
  9 28  1  0
 10 29  1  0
 13 30  1  0
 13 31  1  0
 13 32  1  0
 17 33  1  0
 18 34  1  0
 19 35  1  0
 20 36  1  0
 21 37  1  0
M  END
>  <Energy>  (262) 
323.07444077837948

>  <compound_id>  (262) 
77349

>  <target_id>  (262) 
1

>  <reference_id>  (262) 
76

>  <inspiration_ids>  (262) 
[52, 76]

>  <energy_score>  (262) 
235.86573963909063

>  <distance_score>  (262) 
15.683892669539118

>  <path>  (262) 
/opt/xchem-fragalysis-2/maxwin/BulkDock/SCRATCH/511025/C77349-P76/C77349-P76.minimised.mol

>  <scratch_subdir>  (262) 
/opt/xchem-fragalysis-2/maxwin/BulkDock/SCRATCH/511025/C77349-P76

>  <fragmenstein_runtime>  (262) 
12.21588659286499

>  <fragmenstein_outcome>  (262) 
too moved

>  <fragmenstein_mode>  (262) 
expansion

>  <fragmenstein_error>  (262) 


$$$$
C50598-P52
     RDKit          3D

 44 47  0  0  0  0  0  0  0  0999 V2000
   -4.8867  -14.9803   28.6769 C   0  0  0  0  0  0  0  0  0  0  0  0
   -4.8150  -15.8508   27.3940 C   0  0  0  0  0  0  0  0  0  0  0  0
   -7.4044  -16.3314   27.3459 S   0  0  0  0  0  0  0  0  0  0  0  0
   -8.6754  -18.3183   28.0936 C   0  0  0  0  0  0  0  0  0  0  0  0
   -9.8548  -18.8945   29.2668 N   0  0  0  0  0  0  0  0  0  0  0  0
  -10.2021  -20.2186   29.7025 C   0  0  0  0  0  0  0  0  0  0  0  0
  -10.8445  -20.7713   30.8723 C   0  0  0  0  0  0  0  0  0  0  0  0
  -10.8382  -22.1906   31.0379 C   0  0  0  0  0  0  0  0  0  0  0  0
  -10.2469  -23.0378   30.0579 C   0  0  0  0  0  0  0  0  0  0  0  0
   -9.6610  -22.4936   28.8619 C   0  0  0  0  0  0  0  0  0  0  0  0
   -9.5881  -21.0369   28.7529 C   0  0  0  0  0  0  0  0  0  0  0  0
   -9.4870  -20.0345   27.6814 N   0  0  0  0  0  0  0  0  0  0  0  0
  -11.1519  -20.7379   27.2291 C   0  0  0  0  0  0  0  0  0  0  0  0
  -12.0493  -21.0993   28.2705 C   0  0  0  0  0  0  0  0  0  0  0  0
  -12.5785  -22.4168   28.5418 C   0  0  0  0  0  0  0  0  0  0  0  0
  -12.4049  -23.4561   27.6565 C   0  0  0  0  0  0  0  0  0  0  0  0
  -11.9175  -23.0801   26.4414 C   0  0  0  0  0  0  0  0  0  0  0  0
  -11.4319  -21.7541   26.2669 C   0  0  0  0  0  0  0  0  0  0  0  0
   -3.1225  -15.3105   26.0629 C   0  0  0  0  0  0  0  0  0  0  0  0
   -2.6040  -16.1912   25.4215 O   0  0  0  0  0  0  0  0  0  0  0  0
   -2.4694  -13.5154   25.5538 N   0  0  0  0  0  0  0  0  0  0  0  0
   -1.3533  -12.9339   24.1750 C   0  0  0  0  0  0  0  0  0  0  0  0
    0.4294  -12.3165   24.3326 C   0  0  0  0  0  0  0  0  0  0  0  0
    0.2216  -11.8647   25.5579 N   0  0  0  0  0  0  0  0  0  0  0  0
   -0.9260  -13.0061   26.6287 C   0  0  0  0  0  0  0  0  0  0  0  0
    0.6438  -13.1548   26.4714 O   0  0  0  0  0  0  0  0  0  0  0  0
   -4.7620  -15.5935   29.5746 H   0  0  0  0  0  0  0  0  0  0  0  0
   -4.1454  -14.1842   28.6926 H   0  0  0  0  0  0  0  0  0  0  0  0
   -5.8570  -14.4821   28.7627 H   0  0  0  0  0  0  0  0  0  0  0  0
   -4.5607  -16.8739   27.6510 H   0  0  0  0  0  0  0  0  0  0  0  0
  -11.2428  -20.1236   31.6435 H   0  0  0  0  0  0  0  0  0  0  0  0
  -11.2883  -22.6255   31.9282 H   0  0  0  0  0  0  0  0  0  0  0  0
  -10.2926  -24.1173   30.1812 H   0  0  0  0  0  0  0  0  0  0  0  0
   -9.3992  -23.1269   28.0277 H   0  0  0  0  0  0  0  0  0  0  0  0
  -12.2839  -20.3304   29.0043 H   0  0  0  0  0  0  0  0  0  0  0  0
  -13.1094  -22.5862   29.4771 H   0  0  0  0  0  0  0  0  0  0  0  0
  -12.8017  -24.4458   27.8409 H   0  0  0  0  0  0  0  0  0  0  0  0
  -12.0219  -23.7369   25.5885 H   0  0  0  0  0  0  0  0  0  0  0  0
  -11.7097  -21.4022   25.2533 H   0  0  0  0  0  0  0  0  0  0  0  0
   -1.5859  -13.9565   23.8172 H   0  0  0  0  0  0  0  0  0  0  0  0
   -1.2333  -13.1204   23.0933 H   0  0  0  0  0  0  0  0  0  0  0  0
    0.3833  -12.8702   23.3552 H   0  0  0  0  0  0  0  0  0  0  0  0
    1.1512  -11.5364   23.9396 H   0  0  0  0  0  0  0  0  0  0  0  0
    0.1470  -10.8516   25.5340 H   0  0  0  0  0  0  0  0  0  0  0  0
  1  2  1  0
  2  3  1  0
  3  4  1  0
  4  5  2  0
  5  6  1  0
  6  7  2  0
  7  8  1  0
  8  9  2  0
  9 10  1  0
 10 11  2  0
 11 12  1  0
 12 13  1  0
 13 14  2  0
 14 15  1  0
 15 16  2  0
 16 17  1  0
 17 18  2  0
  2 19  1  0
 19 20  2  0
 19 21  1  0
 21 22  1  0
 22 23  1  0
 23 24  1  0
 24 25  1  0
 25 26  2  0
 12  4  1  0
 18 13  1  0
 25 21  1  0
 11  6  1  0
  1 27  1  0
  1 28  1  0
  1 29  1  0
  2 30  1  0
  7 31  1  0
  8 32  1  0
  9 33  1  0
 10 34  1  0
 14 35  1  0
 15 36  1  0
 16 37  1  0
 17 38  1  0
 18 39  1  0
 22 40  1  0
 22 41  1  0
 23 42  1  0
 23 43  1  0
 24 44  1  0
M  END
>  <Energy>  (263) 
1793.3905248184842

>  <compound_id>  (263) 
50598

>  <target_id>  (263) 
1

>  <reference_id>  (263) 
52

>  <inspiration_ids>  (263) 
[52, 76]

>  <energy_score>  (263) 
1741.3406465691032

>  <distance_score>  (263) 
11.380475485701481

>  <path>  (263) 
/opt/xchem-fragalysis-2/maxwin/BulkDock/SCRATCH/511025/C50598-P52/C50598-P52.minimised.mol

>  <scratch_subdir>  (263) 
/opt/xchem-fragalysis-2/maxwin/BulkDock/SCRATCH/511025/C50598-P52

>  <fragmenstein_runtime>  (263) 
38.92264461517334

>  <fragmenstein_outcome>  (263) 
too moved

>  <fragmenstein_mode>  (263) 
expansion

>  <fragmenstein_error>  (263) 


$$$$
C50598-P76
     RDKit          3D

 44 47  0  0  0  0  0  0  0  0999 V2000
   -2.0396  -12.9160   29.4686 C   0  0  0  0  0  0  0  0  0  0  0  0
   -1.2983  -14.1362   29.9908 C   0  0  0  0  0  0  0  0  0  0  0  0
   -2.0751  -15.6492   29.2334 S   0  0  0  0  0  0  0  0  0  0  0  0
   -3.0290  -16.5265   30.4135 C   0  0  0  0  0  0  0  0  0  0  0  0
   -3.7149  -16.0014   31.4059 N   0  0  0  0  0  0  0  0  0  0  0  0
   -4.2618  -17.0714   32.0855 C   0  0  0  0  0  0  0  0  0  0  0  0
   -5.1225  -17.0755   33.2014 C   0  0  0  0  0  0  0  0  0  0  0  0
   -5.5400  -18.2926   33.7553 C   0  0  0  0  0  0  0  0  0  0  0  0
   -5.0979  -19.4963   33.2198 C   0  0  0  0  0  0  0  0  0  0  0  0
   -4.2525  -19.5153   32.1053 C   0  0  0  0  0  0  0  0  0  0  0  0
   -3.8497  -18.2863   31.5389 C   0  0  0  0  0  0  0  0  0  0  0  0
   -3.1481  -17.9225   30.3780 N   0  0  0  0  0  0  0  0  0  0  0  0
   -2.8421  -18.8239   29.2987 C   0  0  0  0  0  0  0  0  0  0  0  0
   -2.3885  -20.1266   29.5694 C   0  0  0  0  0  0  0  0  0  0  0  0
   -2.4804  -21.1283   28.5931 C   0  0  0  0  0  0  0  0  0  0  0  0
   -3.0268  -20.8419   27.3440 C   0  0  0  0  0  0  0  0  0  0  0  0
   -3.4268  -19.5393   27.0474 C   0  0  0  0  0  0  0  0  0  0  0  0
   -3.3097  -18.5205   28.0046 C   0  0  0  0  0  0  0  0  0  0  0  0
    0.2878  -14.1445   29.7423 C   0  0  0  0  0  0  0  0  0  0  0  0
    0.7700  -15.1989   29.4011 O   0  0  0  0  0  0  0  0  0  0  0  0
    0.9108  -12.9077   30.0600 N   0  0  0  0  0  0  0  0  0  0  0  0
    2.3276  -12.5502   30.1783 C   0  0  0  0  0  0  0  0  0  0  0  0
    2.5455  -11.0841   30.1684 C   0  0  0  0  0  0  0  0  0  0  0  0
    1.8512  -10.8669   28.9886 N   0  0  0  0  0  0  0  0  0  0  0  0
    1.0452  -12.0076   28.7881 C   0  0  0  0  0  0  0  0  0  0  0  0
    0.3869  -12.0428   27.7561 O   0  0  0  0  0  0  0  0  0  0  0  0
   -3.1027  -12.9568   29.7322 H   0  0  0  0  0  0  0  0  0  0  0  0
   -1.6400  -11.9947   29.9042 H   0  0  0  0  0  0  0  0  0  0  0  0
   -1.9662  -12.8283   28.3795 H   0  0  0  0  0  0  0  0  0  0  0  0
   -1.4259  -14.2039   31.0775 H   0  0  0  0  0  0  0  0  0  0  0  0
   -5.4639  -16.1335   33.6173 H   0  0  0  0  0  0  0  0  0  0  0  0
   -6.2256  -18.2934   34.5985 H   0  0  0  0  0  0  0  0  0  0  0  0
   -5.4502  -20.4322   33.6470 H   0  0  0  0  0  0  0  0  0  0  0  0
   -3.9547  -20.4675   31.6876 H   0  0  0  0  0  0  0  0  0  0  0  0
   -1.9853  -20.3830   30.5470 H   0  0  0  0  0  0  0  0  0  0  0  0
   -2.1400  -22.1370   28.8165 H   0  0  0  0  0  0  0  0  0  0  0  0
   -3.1246  -21.6244   26.5935 H   0  0  0  0  0  0  0  0  0  0  0  0
   -3.8864  -19.3393   26.0846 H   0  0  0  0  0  0  0  0  0  0  0  0
   -3.7399  -17.5499   27.7739 H   0  0  0  0  0  0  0  0  0  0  0  0
    2.9332  -13.1093   29.4409 H   0  0  0  0  0  0  0  0  0  0  0  0
    2.6523  -12.9559   31.1458 H   0  0  0  0  0  0  0  0  0  0  0  0
    3.5908  -10.7831   30.0793 H   0  0  0  0  0  0  0  0  0  0  0  0
    2.0520  -10.5683   30.9971 H   0  0  0  0  0  0  0  0  0  0  0  0
    1.3807   -9.9816   28.8020 H   0  0  0  0  0  0  0  0  0  0  0  0
  1  2  1  0
  2  3  1  0
  3  4  1  0
  4  5  2  0
  5  6  1  0
  6  7  2  0
  7  8  1  0
  8  9  2  0
  9 10  1  0
 10 11  2  0
 11 12  1  0
 12 13  1  0
 13 14  2  0
 14 15  1  0
 15 16  2  0
 16 17  1  0
 17 18  2  0
  2 19  1  0
 19 20  2  0
 19 21  1  0
 21 22  1  0
 22 23  1  0
 23 24  1  0
 24 25  1  0
 25 26  2  0
 12  4  1  0
 18 13  1  0
 25 21  1  0
 11  6  1  0
  1 27  1  0
  1 28  1  0
  1 29  1  0
  2 30  1  0
  7 31  1  0
  8 32  1  0
  9 33  1  0
 10 34  1  0
 14 35  1  0
 15 36  1  0
 16 37  1  0
 17 38  1  0
 18 39  1  0
 22 40  1  0
 22 41  1  0
 23 42  1  0
 23 43  1  0
 24 44  1  0
M  END
>  <Energy>  (264) 
89.546848517453711

>  <compound_id>  (264) 
50598

>  <target_id>  (264) 
1

>  <reference_id>  (264) 
76

>  <inspiration_ids>  (264) 
[52, 76]

>  <energy_score>  (264) 
37.49697026805893

>  <distance_score>  (264) 
13.583588117337728

>  <path>  (264) 
/opt/xchem-fragalysis-2/maxwin/BulkDock/SCRATCH/511025/C50598-P76/C50598-P76.minimised.mol

>  <scratch_subdir>  (264) 
/opt/xchem-fragalysis-2/maxwin/BulkDock/SCRATCH/511025/C50598-P76

>  <fragmenstein_runtime>  (264) 
34.143696546554565

>  <fragmenstein_outcome>  (264) 
too moved

>  <fragmenstein_mode>  (264) 
expansion

>  <fragmenstein_error>  (264) 


$$$$
C77351-P52
     RDKit          3D

 39 41  0  0  0  0  0  0  0  0999 V2000
    0.3659   -7.2277   20.3370 C   0  0  0  0  0  0  0  0  0  0  0  0
    1.3453   -8.5917   20.1332 N   0  0  0  0  0  0  0  0  0  0  0  0
   -0.3118   -9.4644   20.5450 C   0  0  0  0  0  0  0  0  0  0  0  0
   -2.0121   -9.4772   19.9700 C   0  0  0  0  0  0  0  0  0  0  0  0
   -3.0296   -8.7911   20.4985 N   0  0  0  0  0  0  0  0  0  0  0  0
   -4.2157   -9.3239   19.9807 C   0  0  0  0  0  0  0  0  0  0  0  0
   -5.5671   -9.0252   20.2728 C   0  0  0  0  0  0  0  0  0  0  0  0
   -6.5828   -9.8757   19.7849 C   0  0  0  0  0  0  0  0  0  0  0  0
   -6.2691  -10.9716   18.9717 C   0  0  0  0  0  0  0  0  0  0  0  0
   -4.9385  -11.2434   18.6096 C   0  0  0  0  0  0  0  0  0  0  0  0
   -3.9410  -10.4097   19.1553 C   0  0  0  0  0  0  0  0  0  0  0  0
   -2.5688  -10.4725   19.1442 N   0  0  0  0  0  0  0  0  0  0  0  0
    3.0645   -9.5802   20.9393 C   0  0  0  0  0  0  0  0  0  0  0  0
    3.7183  -11.2941   19.9463 C   0  0  0  0  0  0  0  0  0  0  0  0
    3.1153  -12.3608   19.8162 O   0  0  0  0  0  0  0  0  0  0  0  0
    4.9233  -11.3570   19.2911 O   0  0  0  0  0  0  0  0  0  0  0  0
    4.9990   -9.2360   20.7650 C   0  0  0  0  0  0  0  0  0  0  0  0
    5.9874   -9.3262   21.9432 C   0  0  0  0  0  0  0  0  0  0  0  0
    7.4065   -9.2023   21.8691 C   0  0  0  0  0  0  0  0  0  0  0  0
    8.0466   -9.0379   20.6536 C   0  0  0  0  0  0  0  0  0  0  0  0
    7.2853   -9.0553   19.5004 C   0  0  0  0  0  0  0  0  0  0  0  0
    5.8693   -9.1811   19.5459 C   0  0  0  0  0  0  0  0  0  0  0  0
    0.1144   -6.9042   21.3579 H   0  0  0  0  0  0  0  0  0  0  0  0
    0.2994   -6.3633   19.6470 H   0  0  0  0  0  0  0  0  0  0  0  0
   -0.5918   -7.5101   19.8760 H   0  0  0  0  0  0  0  0  0  0  0  0
   -0.0517  -10.2738   21.2199 H   0  0  0  0  0  0  0  0  0  0  0  0
   -0.7828   -8.7523   21.2270 H   0  0  0  0  0  0  0  0  0  0  0  0
   -5.7997   -8.1926   20.9234 H   0  0  0  0  0  0  0  0  0  0  0  0
   -7.6173   -9.6757   20.0493 H   0  0  0  0  0  0  0  0  0  0  0  0
   -7.0674  -11.6114   18.6041 H   0  0  0  0  0  0  0  0  0  0  0  0
   -4.6903  -12.0910   17.9808 H   0  0  0  0  0  0  0  0  0  0  0  0
   -2.0238  -11.0805   18.5484 H   0  0  0  0  0  0  0  0  0  0  0  0
    2.5823  -10.2312   21.7277 H   0  0  0  0  0  0  0  0  0  0  0  0
    4.9064  -12.2707   18.9380 H   0  0  0  0  0  0  0  0  0  0  0  0
    5.6489   -9.5751   22.9396 H   0  0  0  0  0  0  0  0  0  0  0  0
    7.9936   -9.2824   22.7810 H   0  0  0  0  0  0  0  0  0  0  0  0
    9.1283   -8.9697   20.6007 H   0  0  0  0  0  0  0  0  0  0  0  0
    7.7744   -9.0091   18.5294 H   0  0  0  0  0  0  0  0  0  0  0  0
    5.4710   -9.2723   18.5324 H   0  0  0  0  0  0  0  0  0  0  0  0
  1  2  1  0
  2  3  1  0
  3  4  1  0
  4  5  2  0
  5  6  1  0
  6  7  2  0
  7  8  1  0
  8  9  2  0
  9 10  1  0
 10 11  2  0
 11 12  1  0
  2 13  1  0
 13 14  1  0
 14 15  2  0
 14 16  1  0
 13 17  1  0
 17 18  2  0
 18 19  1  0
 19 20  2  0
 20 21  1  0
 21 22  2  0
 12  4  1  0
 22 17  1  0
 11  6  1  0
  1 23  1  0
  1 24  1  0
  1 25  1  0
  3 26  1  0
  3 27  1  0
  7 28  1  0
  8 29  1  0
  9 30  1  0
 10 31  1  0
 12 32  1  0
 13 33  1  0
 16 34  1  0
 18 35  1  0
 19 36  1  0
 20 37  1  0
 21 38  1  0
 22 39  1  0
M  END
>  <Energy>  (265) 
625.89700039743502

>  <compound_id>  (265) 
77351

>  <target_id>  (265) 
1

>  <reference_id>  (265) 
52

>  <inspiration_ids>  (265) 
[52, 76]

>  <energy_score>  (265) 
504.8129712185364

>  <distance_score>  (265) 
17.222143375641622

>  <path>  (265) 
/opt/xchem-fragalysis-2/maxwin/BulkDock/SCRATCH/511025/C77351-P52/C77351-P52.minimised.mol

>  <scratch_subdir>  (265) 
/opt/xchem-fragalysis-2/maxwin/BulkDock/SCRATCH/511025/C77351-P52

>  <fragmenstein_runtime>  (265) 
20.95870852470398

>  <fragmenstein_outcome>  (265) 
too moved

>  <fragmenstein_mode>  (265) 
expansion

>  <fragmenstein_error>  (265) 


$$$$
C77351-P76
     RDKit          3D

 39 41  0  0  0  0  0  0  0  0999 V2000
    7.3859   -5.5169   23.4848 C   0  0  0  0  0  0  0  0  0  0  0  0
    6.8341   -6.4488   22.4782 N   0  0  0  0  0  0  0  0  0  0  0  0
    5.0742   -6.9501   23.4115 C   0  0  0  0  0  0  0  0  0  0  0  0
    3.0789   -6.9548   24.1159 C   0  0  0  0  0  0  0  0  0  0  0  0
    1.8803   -7.9122   23.7726 N   0  0  0  0  0  0  0  0  0  0  0  0
    0.2780   -7.7272   24.4807 C   0  0  0  0  0  0  0  0  0  0  0  0
   -0.2510   -7.7801   26.0375 C   0  0  0  0  0  0  0  0  0  0  0  0
   -1.1272   -6.9908   26.7236 C   0  0  0  0  0  0  0  0  0  0  0  0
   -1.8235   -6.2446   25.8920 C   0  0  0  0  0  0  0  0  0  0  0  0
   -1.2785   -6.0247   24.6099 C   0  0  0  0  0  0  0  0  0  0  0  0
   -0.0153   -6.5237   24.0543 C   0  0  0  0  0  0  0  0  0  0  0  0
    1.4711   -5.9832   23.8235 N   0  0  0  0  0  0  0  0  0  0  0  0
    7.8769   -6.1825   20.7525 C   0  0  0  0  0  0  0  0  0  0  0  0
    7.7795   -7.5915   20.1623 C   0  0  0  0  0  0  0  0  0  0  0  0
    6.9123   -8.0238   19.4082 O   0  0  0  0  0  0  0  0  0  0  0  0
    8.8530   -8.3892   20.4664 O   0  0  0  0  0  0  0  0  0  0  0  0
    9.7016   -5.7053   19.9013 C   0  0  0  0  0  0  0  0  0  0  0  0
   10.5538   -5.4727   18.3358 C   0  0  0  0  0  0  0  0  0  0  0  0
   12.1479   -4.7958   17.9363 C   0  0  0  0  0  0  0  0  0  0  0  0
   13.1249   -4.5061   18.8599 C   0  0  0  0  0  0  0  0  0  0  0  0
   12.7632   -4.9242   20.1159 C   0  0  0  0  0  0  0  0  0  0  0  0
   11.3668   -5.5217   20.4303 C   0  0  0  0  0  0  0  0  0  0  0  0
    8.1545   -5.9933   24.0882 H   0  0  0  0  0  0  0  0  0  0  0  0
    6.6406   -5.2687   24.2245 H   0  0  0  0  0  0  0  0  0  0  0  0
    7.6475   -4.5417   23.0881 H   0  0  0  0  0  0  0  0  0  0  0  0
    5.5794   -7.3598   24.2896 H   0  0  0  0  0  0  0  0  0  0  0  0
    4.7605   -7.7373   22.7733 H   0  0  0  0  0  0  0  0  0  0  0  0
    0.3482   -8.2715   26.7971 H   0  0  0  0  0  0  0  0  0  0  0  0
   -1.2660   -7.0263   27.7931 H   0  0  0  0  0  0  0  0  0  0  0  0
   -2.6977   -5.7137   26.2358 H   0  0  0  0  0  0  0  0  0  0  0  0
   -1.9429   -5.4118   24.0256 H   0  0  0  0  0  0  0  0  0  0  0  0
    1.4687   -5.1916   23.1956 H   0  0  0  0  0  0  0  0  0  0  0  0
    7.3097   -5.4429   20.2121 H   0  0  0  0  0  0  0  0  0  0  0  0
    8.7350   -9.2261   19.9662 H   0  0  0  0  0  0  0  0  0  0  0  0
   10.4774   -5.0920   17.3065 H   0  0  0  0  0  0  0  0  0  0  0  0
   12.3161   -4.5945   16.8726 H   0  0  0  0  0  0  0  0  0  0  0  0
   14.0965   -4.1088   18.6094 H   0  0  0  0  0  0  0  0  0  0  0  0
   13.5191   -4.9986   20.8988 H   0  0  0  0  0  0  0  0  0  0  0  0
   11.8381   -6.4889   20.7992 H   0  0  0  0  0  0  0  0  0  0  0  0
  1  2  1  0
  2  3  1  0
  3  4  1  0
  4  5  2  0
  5  6  1  0
  6  7  2  0
  7  8  1  0
  8  9  2  0
  9 10  1  0
 10 11  2  0
 11 12  1  0
  2 13  1  0
 13 14  1  0
 14 15  2  0
 14 16  1  0
 13 17  1  0
 17 18  2  0
 18 19  1  0
 19 20  2  0
 20 21  1  0
 21 22  2  0
 12  4  1  0
 22 17  1  0
 11  6  1  0
  1 23  1  0
  1 24  1  0
  1 25  1  0
  3 26  1  0
  3 27  1  0
  7 28  1  0
  8 29  1  0
  9 30  1  0
 10 31  1  0
 12 32  1  0
 13 33  1  0
 16 34  1  0
 18 35  1  0
 19 36  1  0
 20 37  1  0
 21 38  1  0
 22 39  1  0
M  END
>  <Energy>  (266) 
1218.7493613645534

>  <compound_id>  (266) 
77351

>  <target_id>  (266) 
1

>  <reference_id>  (266) 
76

>  <inspiration_ids>  (266) 
[52, 76]

>  <energy_score>  (266) 
1097.6653321856475

>  <distance_score>  (266) 
16.215102990186047

>  <path>  (266) 
/opt/xchem-fragalysis-2/maxwin/BulkDock/SCRATCH/511025/C77351-P76/C77351-P76.minimised.mol

>  <scratch_subdir>  (266) 
/opt/xchem-fragalysis-2/maxwin/BulkDock/SCRATCH/511025/C77351-P76

>  <fragmenstein_runtime>  (266) 
10.226142883300781

>  <fragmenstein_outcome>  (266) 
too moved

>  <fragmenstein_mode>  (266) 
expansion

>  <fragmenstein_error>  (266) 


$$$$
C77352-P52
     RDKit          3D

 36 38  0  0  0  0  0  0  0  0999 V2000
    5.9435  -10.2264   29.6685 O   0  0  0  0  0  0  0  0  0  0  0  0
    4.9311  -10.1261   28.9931 C   0  0  0  0  0  0  0  0  0  0  0  0
    4.3753   -8.9126   28.7876 O   0  0  0  0  0  0  0  0  0  0  0  0
    4.1802  -11.2682   28.3320 C   0  0  0  0  0  0  0  0  0  0  0  0
    4.1567  -11.1192   26.8644 N   0  0  0  0  0  0  0  0  0  0  0  0
    3.0884  -12.2090   26.2478 C   0  0  0  0  0  0  0  0  0  0  0  0
    1.2669  -12.1122   25.7734 C   0  0  0  0  0  0  0  0  0  0  0  0
    0.7070  -13.1644   26.2212 N   0  0  0  0  0  0  0  0  0  0  0  0
   -1.2780  -13.2127   26.5881 C   0  0  0  0  0  0  0  0  0  0  0  0
   -2.1914  -13.9695   27.4081 C   0  0  0  0  0  0  0  0  0  0  0  0
   -1.7604  -14.6175   28.4984 F   0  0  0  0  0  0  0  0  0  0  0  0
   -3.5252  -14.0875   27.0069 C   0  0  0  0  0  0  0  0  0  0  0  0
   -4.0206  -13.4205   25.8627 C   0  0  0  0  0  0  0  0  0  0  0  0
   -3.2323  -12.6275   24.9520 C   0  0  0  0  0  0  0  0  0  0  0  0
   -1.7727  -12.7113   24.9272 C   0  0  0  0  0  0  0  0  0  0  0  0
   -0.0197  -11.7930   24.9544 N   0  0  0  0  0  0  0  0  0  0  0  0
    5.5782  -11.2810   26.2492 C   0  0  0  0  0  0  0  0  0  0  0  0
    6.2106  -10.1118   25.4755 C   0  0  0  0  0  0  0  0  0  0  0  0
    6.5187   -8.7880   25.7515 C   0  0  0  0  0  0  0  0  0  0  0  0
    7.2143   -8.2606   24.6236 C   0  0  0  0  0  0  0  0  0  0  0  0
    7.3025   -9.2898   23.7201 C   0  0  0  0  0  0  0  0  0  0  0  0
    6.7102  -10.4063   24.2238 O   0  0  0  0  0  0  0  0  0  0  0  0
    4.9496   -8.3120   29.3061 H   0  0  0  0  0  0  0  0  0  0  0  0
    4.6404  -12.2169   28.6320 H   0  0  0  0  0  0  0  0  0  0  0  0
    3.1660  -11.2498   28.7439 H   0  0  0  0  0  0  0  0  0  0  0  0
    3.6062  -12.6091   25.3610 H   0  0  0  0  0  0  0  0  0  0  0  0
    3.0796  -13.0035   27.0139 H   0  0  0  0  0  0  0  0  0  0  0  0
   -4.2095  -14.6469   27.6408 H   0  0  0  0  0  0  0  0  0  0  0  0
   -5.1063  -13.3943   25.7329 H   0  0  0  0  0  0  0  0  0  0  0  0
   -3.7732  -11.8859   24.3669 H   0  0  0  0  0  0  0  0  0  0  0  0
    0.3192  -11.9329   24.0374 H   0  0  0  0  0  0  0  0  0  0  0  0
    5.5881  -12.1613   25.5954 H   0  0  0  0  0  0  0  0  0  0  0  0
    6.2823  -11.5311   27.0538 H   0  0  0  0  0  0  0  0  0  0  0  0
    6.2863   -8.2741   26.6732 H   0  0  0  0  0  0  0  0  0  0  0  0
    7.6132   -7.2635   24.5055 H   0  0  0  0  0  0  0  0  0  0  0  0
    7.7327   -9.3991   22.7339 H   0  0  0  0  0  0  0  0  0  0  0  0
  1  2  2  0
  2  3  1  0
  2  4  1  0
  4  5  1  0
  5  6  1  0
  6  7  1  0
  7  8  2  0
  8  9  1  0
  9 10  2  0
 10 11  1  0
 10 12  1  0
 12 13  2  0
 13 14  1  0
 14 15  2  0
 15 16  1  0
  5 17  1  0
 17 18  1  0
 18 19  2  0
 19 20  1  0
 20 21  2  0
 21 22  1  0
 16  7  1  0
 22 18  1  0
 15  9  1  0
  3 23  1  0
  4 24  1  0
  4 25  1  0
  6 26  1  0
  6 27  1  0
 12 28  1  0
 13 29  1  0
 14 30  1  0
 16 31  1  0
 17 32  1  0
 17 33  1  0
 19 34  1  0
 20 35  1  0
 21 36  1  0
M  END
>  <Energy>  (267) 
530.25862513128106

>  <compound_id>  (267) 
77352

>  <target_id>  (267) 
1

>  <reference_id>  (267) 
52

>  <inspiration_ids>  (267) 
[52, 76]

>  <energy_score>  (267) 
427.22614457919735

>  <distance_score>  (267) 
17.01536305396675

>  <path>  (267) 
/opt/xchem-fragalysis-2/maxwin/BulkDock/SCRATCH/511025/C77352-P52/C77352-P52.minimised.mol

>  <scratch_subdir>  (267) 
/opt/xchem-fragalysis-2/maxwin/BulkDock/SCRATCH/511025/C77352-P52

>  <fragmenstein_runtime>  (267) 
13.842631340026855

>  <fragmenstein_outcome>  (267) 
too moved

>  <fragmenstein_mode>  (267) 
expansion

>  <fragmenstein_error>  (267) 


$$$$
C77352-P76
     RDKit          3D

 36 38  0  0  0  0  0  0  0  0999 V2000
    2.0378   -9.0582   17.5159 O   0  0  0  0  0  0  0  0  0  0  0  0
    1.5693   -8.0528   18.0061 C   0  0  0  0  0  0  0  0  0  0  0  0
    2.2757   -6.9003   17.8531 O   0  0  0  0  0  0  0  0  0  0  0  0
    0.3324   -7.8703   18.8766 C   0  0  0  0  0  0  0  0  0  0  0  0
   -1.0589   -8.2490   18.5006 N   0  0  0  0  0  0  0  0  0  0  0  0
   -1.8646   -9.2738   19.4768 C   0  0  0  0  0  0  0  0  0  0  0  0
   -3.0426   -9.3333   20.7528 C   0  0  0  0  0  0  0  0  0  0  0  0
   -2.8006   -9.6811   22.0644 N   0  0  0  0  0  0  0  0  0  0  0  0
   -4.0037  -10.2086   22.6661 C   0  0  0  0  0  0  0  0  0  0  0  0
   -4.4806  -11.3577   24.0794 C   0  0  0  0  0  0  0  0  0  0  0  0
   -3.6059  -12.0682   24.8682 F   0  0  0  0  0  0  0  0  0  0  0  0
   -5.9024  -12.2404   23.9897 C   0  0  0  0  0  0  0  0  0  0  0  0
   -6.7504  -12.0491   22.8050 C   0  0  0  0  0  0  0  0  0  0  0  0
   -6.3599  -11.0929   21.6467 C   0  0  0  0  0  0  0  0  0  0  0  0
   -5.0436  -10.2274   21.5208 C   0  0  0  0  0  0  0  0  0  0  0  0
   -4.4010   -9.5718   20.4738 N   0  0  0  0  0  0  0  0  0  0  0  0
   -1.4534   -7.8188   17.1513 C   0  0  0  0  0  0  0  0  0  0  0  0
   -0.4451   -6.9940   16.3173 C   0  0  0  0  0  0  0  0  0  0  0  0
   -0.1319   -5.6441   16.2298 C   0  0  0  0  0  0  0  0  0  0  0  0
    0.9585   -5.5137   15.3257 C   0  0  0  0  0  0  0  0  0  0  0  0
    1.2331   -6.7838   14.8822 C   0  0  0  0  0  0  0  0  0  0  0  0
    0.3896   -7.6818   15.4646 O   0  0  0  0  0  0  0  0  0  0  0  0
    2.9796   -7.1862   17.2361 H   0  0  0  0  0  0  0  0  0  0  0  0
    0.3119   -6.7857   18.8266 H   0  0  0  0  0  0  0  0  0  0  0  0
    0.5442   -8.1502   19.9067 H   0  0  0  0  0  0  0  0  0  0  0  0
   -2.0675  -10.1787   18.8916 H   0  0  0  0  0  0  0  0  0  0  0  0
   -1.1029   -9.4449   20.2418 H   0  0  0  0  0  0  0  0  0  0  0  0
   -6.0822  -12.9934   24.7475 H   0  0  0  0  0  0  0  0  0  0  0  0
   -7.6631  -12.6308   22.6960 H   0  0  0  0  0  0  0  0  0  0  0  0
   -7.0087  -11.0811   20.7695 H   0  0  0  0  0  0  0  0  0  0  0  0
   -4.7765   -9.5139   19.5425 H   0  0  0  0  0  0  0  0  0  0  0  0
   -2.3612   -7.2109   17.2456 H   0  0  0  0  0  0  0  0  0  0  0  0
   -1.7327   -8.6959   16.5577 H   0  0  0  0  0  0  0  0  0  0  0  0
   -0.6232   -4.8537   16.7781 H   0  0  0  0  0  0  0  0  0  0  0  0
    1.4665   -4.6060   15.0340 H   0  0  0  0  0  0  0  0  0  0  0  0
    1.9511   -7.2034   14.1916 H   0  0  0  0  0  0  0  0  0  0  0  0
  1  2  2  0
  2  3  1  0
  2  4  1  0
  4  5  1  0
  5  6  1  0
  6  7  1  0
  7  8  2  0
  8  9  1  0
  9 10  2  0
 10 11  1  0
 10 12  1  0
 12 13  2  0
 13 14  1  0
 14 15  2  0
 15 16  1  0
  5 17  1  0
 17 18  1  0
 18 19  2  0
 19 20  1  0
 20 21  2  0
 21 22  1  0
 16  7  1  0
 22 18  1  0
 15  9  1  0
  3 23  1  0
  4 24  1  0
  4 25  1  0
  6 26  1  0
  6 27  1  0
 12 28  1  0
 13 29  1  0
 14 30  1  0
 16 31  1  0
 17 32  1  0
 17 33  1  0
 19 34  1  0
 20 35  1  0
 21 36  1  0
M  END
>  <Energy>  (268) 
290.96067886613901

>  <compound_id>  (268) 
77352

>  <target_id>  (268) 
1

>  <reference_id>  (268) 
76

>  <inspiration_ids>  (268) 
[52, 76]

>  <energy_score>  (268) 
187.9281983140578

>  <distance_score>  (268) 
16.60487862214184

>  <path>  (268) 
/opt/xchem-fragalysis-2/maxwin/BulkDock/SCRATCH/511025/C77352-P76/C77352-P76.minimised.mol

>  <scratch_subdir>  (268) 
/opt/xchem-fragalysis-2/maxwin/BulkDock/SCRATCH/511025/C77352-P76

>  <fragmenstein_runtime>  (268) 
9.747303009033203

>  <fragmenstein_outcome>  (268) 
too moved

>  <fragmenstein_mode>  (268) 
expansion

>  <fragmenstein_error>  (268) 


$$$$
C77353-P52
     RDKit          3D

 39 41  0  0  0  0  0  0  0  0999 V2000
    7.7690  -15.4964   23.2858 O   0  0  0  0  0  0  0  0  0  0  0  0
    6.5656  -15.2877   23.3371 C   0  0  0  0  0  0  0  0  0  0  0  0
    6.0877  -14.0438   23.4692 O   0  0  0  0  0  0  0  0  0  0  0  0
    5.4952  -16.3530   23.2964 C   0  0  0  0  0  0  0  0  0  0  0  0
    4.5806  -16.2889   22.1247 N   0  0  0  0  0  0  0  0  0  0  0  0
    5.4215  -16.2563   20.8288 C   0  0  0  0  0  0  0  0  0  0  0  0
    5.9298  -14.9354   20.1947 C   0  0  0  0  0  0  0  0  0  0  0  0
    7.2936  -14.5626   20.2023 C   0  0  0  0  0  0  0  0  0  0  0  0
    7.7692  -13.4466   19.4832 C   0  0  0  0  0  0  0  0  0  0  0  0
    6.8942  -12.6891   18.7117 C   0  0  0  0  0  0  0  0  0  0  0  0
    5.5471  -13.0506   18.6670 C   0  0  0  0  0  0  0  0  0  0  0  0
    5.0737  -14.1511   19.4031 C   0  0  0  0  0  0  0  0  0  0  0  0
    3.7317  -17.6444   22.2223 C   0  0  0  0  0  0  0  0  0  0  0  0
    2.5408  -17.9588   23.3176 C   0  0  0  0  0  0  0  0  0  0  0  0
    1.2920  -18.3538   23.0258 N   0  0  0  0  0  0  0  0  0  0  0  0
    0.6462  -18.7263   24.2041 C   0  0  0  0  0  0  0  0  0  0  0  0
   -0.6704  -19.1874   24.4438 C   0  0  0  0  0  0  0  0  0  0  0  0
   -1.0570  -19.5208   25.7513 C   0  0  0  0  0  0  0  0  0  0  0  0
   -2.6563  -20.0850   26.0491 Cl  0  0  0  0  0  0  0  0  0  0  0  0
   -0.1599  -19.4030   26.8107 C   0  0  0  0  0  0  0  0  0  0  0  0
    1.1510  -18.9397   26.5894 C   0  0  0  0  0  0  0  0  0  0  0  0
    1.5220  -18.6057   25.2705 C   0  0  0  0  0  0  0  0  0  0  0  0
    2.6979  -18.1200   24.6951 N   0  0  0  0  0  0  0  0  0  0  0  0
    6.8718  -13.4655   23.3749 H   0  0  0  0  0  0  0  0  0  0  0  0
    6.0182  -17.3177   23.3364 H   0  0  0  0  0  0  0  0  0  0  0  0
    4.9081  -16.2704   24.2140 H   0  0  0  0  0  0  0  0  0  0  0  0
    4.7979  -16.7101   20.0459 H   0  0  0  0  0  0  0  0  0  0  0  0
    6.2683  -16.9485   20.9353 H   0  0  0  0  0  0  0  0  0  0  0  0
    8.0162  -15.1671   20.7483 H   0  0  0  0  0  0  0  0  0  0  0  0
    8.8262  -13.1958   19.5143 H   0  0  0  0  0  0  0  0  0  0  0  0
    7.2522  -11.8356   18.1441 H   0  0  0  0  0  0  0  0  0  0  0  0
    4.8496  -12.4717   18.0657 H   0  0  0  0  0  0  0  0  0  0  0  0
    4.0164  -14.4042   19.3353 H   0  0  0  0  0  0  0  0  0  0  0  0
    3.2238  -17.7580   21.2556 H   0  0  0  0  0  0  0  0  0  0  0  0
    4.4352  -18.4850   22.2967 H   0  0  0  0  0  0  0  0  0  0  0  0
   -1.3568  -19.2797   23.6094 H   0  0  0  0  0  0  0  0  0  0  0  0
   -0.4682  -19.6647   27.8202 H   0  0  0  0  0  0  0  0  0  0  0  0
    1.8506  -18.8407   27.4134 H   0  0  0  0  0  0  0  0  0  0  0  0
    3.5513  -17.9425   25.2001 H   0  0  0  0  0  0  0  0  0  0  0  0
  1  2  2  0
  2  3  1  0
  2  4  1  0
  4  5  1  0
  5  6  1  0
  6  7  1  0
  7  8  2  0
  8  9  1  0
  9 10  2  0
 10 11  1  0
 11 12  2  0
  5 13  1  0
 13 14  1  0
 14 15  2  0
 15 16  1  0
 16 17  2  0
 17 18  1  0
 18 19  1  0
 18 20  2  0
 20 21  1  0
 21 22  2  0
 22 23  1  0
 12  7  1  0
 23 14  1  0
 22 16  1  0
  3 24  1  0
  4 25  1  0
  4 26  1  0
  6 27  1  0
  6 28  1  0
  8 29  1  0
  9 30  1  0
 10 31  1  0
 11 32  1  0
 12 33  1  0
 13 34  1  0
 13 35  1  0
 17 36  1  0
 20 37  1  0
 21 38  1  0
 23 39  1  0
M  END
>  <Energy>  (269) 
80.834823092570474

>  <compound_id>  (269) 
77353

>  <target_id>  (269) 
1

>  <reference_id>  (269) 
52

>  <inspiration_ids>  (269) 
[52, 76]

>  <energy_score>  (269) 
-8.304675859164263

>  <distance_score>  (269) 
17.11495623237934

>  <path>  (269) 
/opt/xchem-fragalysis-2/maxwin/BulkDock/SCRATCH/511025/C77353-P52/C77353-P52.minimised.mol

>  <scratch_subdir>  (269) 
/opt/xchem-fragalysis-2/maxwin/BulkDock/SCRATCH/511025/C77353-P52

>  <fragmenstein_runtime>  (269) 
19.91727566719055

>  <fragmenstein_outcome>  (269) 
too moved

>  <fragmenstein_mode>  (269) 
expansion

>  <fragmenstein_error>  (269) 


$$$$
C77353-P76
     RDKit          3D

 39 41  0  0  0  0  0  0  0  0999 V2000
   -1.4328   -5.3871   17.2245 O   0  0  0  0  0  0  0  0  0  0  0  0
   -1.1739   -6.1290   16.2913 C   0  0  0  0  0  0  0  0  0  0  0  0
   -0.7196   -5.6117   15.1277 O   0  0  0  0  0  0  0  0  0  0  0  0
   -1.3679   -7.6342   16.2115 C   0  0  0  0  0  0  0  0  0  0  0  0
   -0.9534   -8.3578   17.4496 N   0  0  0  0  0  0  0  0  0  0  0  0
    0.5846   -8.4223   17.5046 C   0  0  0  0  0  0  0  0  0  0  0  0
    1.5411   -7.3152   17.0126 C   0  0  0  0  0  0  0  0  0  0  0  0
    2.3631   -7.5225   15.8858 C   0  0  0  0  0  0  0  0  0  0  0  0
    3.3386   -6.5900   15.5080 C   0  0  0  0  0  0  0  0  0  0  0  0
    3.5092   -5.4271   16.2505 C   0  0  0  0  0  0  0  0  0  0  0  0
    2.7159   -5.2052   17.3746 C   0  0  0  0  0  0  0  0  0  0  0  0
    1.7515   -6.1441   17.7553 C   0  0  0  0  0  0  0  0  0  0  0  0
   -1.6334   -9.7987   17.3550 C   0  0  0  0  0  0  0  0  0  0  0  0
   -2.5196  -10.6591   18.4503 C   0  0  0  0  0  0  0  0  0  0  0  0
   -2.4932  -12.0020   18.5337 N   0  0  0  0  0  0  0  0  0  0  0  0
   -3.6787  -12.4341   19.1163 C   0  0  0  0  0  0  0  0  0  0  0  0
   -4.1989  -13.7411   19.2954 C   0  0  0  0  0  0  0  0  0  0  0  0
   -5.4835  -13.9060   19.8421 C   0  0  0  0  0  0  0  0  0  0  0  0
   -6.1206  -15.4910   20.0517 Cl  0  0  0  0  0  0  0  0  0  0  0  0
   -6.2329  -12.7994   20.2346 C   0  0  0  0  0  0  0  0  0  0  0  0
   -5.7235  -11.4927   20.0656 C   0  0  0  0  0  0  0  0  0  0  0  0
   -4.4387  -11.3404   19.4968 C   0  0  0  0  0  0  0  0  0  0  0  0
   -3.6521  -10.2334   19.1503 N   0  0  0  0  0  0  0  0  0  0  0  0
   -0.5747   -4.6680   15.3491 H   0  0  0  0  0  0  0  0  0  0  0  0
   -2.4467   -7.7455   16.0421 H   0  0  0  0  0  0  0  0  0  0  0  0
   -0.8503   -8.0414   15.3344 H   0  0  0  0  0  0  0  0  0  0  0  0
    0.8402   -8.5043   18.5627 H   0  0  0  0  0  0  0  0  0  0  0  0
    0.9052   -9.3390   16.9979 H   0  0  0  0  0  0  0  0  0  0  0  0
    2.2562   -8.4326   15.2981 H   0  0  0  0  0  0  0  0  0  0  0  0
    3.9484   -6.7764   14.6284 H   0  0  0  0  0  0  0  0  0  0  0  0
    4.2395   -4.6881   15.9441 H   0  0  0  0  0  0  0  0  0  0  0  0
    2.8469   -4.3043   17.9699 H   0  0  0  0  0  0  0  0  0  0  0  0
    1.1609   -5.9579   18.6497 H   0  0  0  0  0  0  0  0  0  0  0  0
   -2.3749   -9.7366   16.5441 H   0  0  0  0  0  0  0  0  0  0  0  0
   -0.8903  -10.5000   16.9556 H   0  0  0  0  0  0  0  0  0  0  0  0
   -3.6093  -14.5920   18.9721 H   0  0  0  0  0  0  0  0  0  0  0  0
   -7.2179  -12.9276   20.6760 H   0  0  0  0  0  0  0  0  0  0  0  0
   -6.2996  -10.6275   20.3784 H   0  0  0  0  0  0  0  0  0  0  0  0
   -3.9272   -9.2673   19.2485 H   0  0  0  0  0  0  0  0  0  0  0  0
  1  2  2  0
  2  3  1  0
  2  4  1  0
  4  5  1  0
  5  6  1  0
  6  7  1  0
  7  8  2  0
  8  9  1  0
  9 10  2  0
 10 11  1  0
 11 12  2  0
  5 13  1  0
 13 14  1  0
 14 15  2  0
 15 16  1  0
 16 17  2  0
 17 18  1  0
 18 19  1  0
 18 20  2  0
 20 21  1  0
 21 22  2  0
 22 23  1  0
 12  7  1  0
 23 14  1  0
 22 16  1  0
  3 24  1  0
  4 25  1  0
  4 26  1  0
  6 27  1  0
  6 28  1  0
  8 29  1  0
  9 30  1  0
 10 31  1  0
 11 32  1  0
 12 33  1  0
 13 34  1  0
 13 35  1  0
 17 36  1  0
 20 37  1  0
 21 38  1  0
 23 39  1  0
M  END
>  <Energy>  (270) 
91.950239325092554

>  <compound_id>  (270) 
77353

>  <target_id>  (270) 
1

>  <reference_id>  (270) 
76

>  <inspiration_ids>  (270) 
[52, 76]

>  <energy_score>  (270) 
2.8107403733604883

>  <distance_score>  (270) 
17.033211048775684

>  <path>  (270) 
/opt/xchem-fragalysis-2/maxwin/BulkDock/SCRATCH/511025/C77353-P76/C77353-P76.minimised.mol

>  <scratch_subdir>  (270) 
/opt/xchem-fragalysis-2/maxwin/BulkDock/SCRATCH/511025/C77353-P76

>  <fragmenstein_runtime>  (270) 
10.296394109725952

>  <fragmenstein_outcome>  (270) 
too moved

>  <fragmenstein_mode>  (270) 
expansion

>  <fragmenstein_error>  (270) 


$$$$
C77354-P52
     RDKit          3D

 43 45  0  0  0  0  0  0  0  0999 V2000
  -10.3121  -21.2989   28.3272 C   0  0  0  0  0  0  0  0  0  0  0  0
  -10.6192  -20.4568   29.5128 C   0  0  0  0  0  0  0  0  0  0  0  0
  -10.2999  -19.3001   29.6708 O   0  0  0  0  0  0  0  0  0  0  0  0
  -11.3059  -21.1019   30.6332 C   0  0  0  0  0  0  0  0  0  0  0  0
  -11.0522  -20.4530   31.9830 C   0  0  0  0  0  0  0  0  0  0  0  0
  -12.0283  -21.4269   33.2495 S   0  0  0  0  0  0  0  0  0  0  0  0
  -13.6533  -20.8097   33.1628 C   0  0  0  0  0  0  0  0  0  0  0  0
  -14.2674  -20.2750   32.1267 N   0  0  0  0  0  0  0  0  0  0  0  0
  -15.3657  -19.6285   32.6640 C   0  0  0  0  0  0  0  0  0  0  0  0
  -16.3997  -18.8875   32.0905 C   0  0  0  0  0  0  0  0  0  0  0  0
  -17.3176  -18.2195   32.9091 C   0  0  0  0  0  0  0  0  0  0  0  0
  -17.2156  -18.2774   34.2916 C   0  0  0  0  0  0  0  0  0  0  0  0
  -16.2299  -19.0445   34.8933 C   0  0  0  0  0  0  0  0  0  0  0  0
  -15.3578  -19.7208   34.0397 C   0  0  0  0  0  0  0  0  0  0  0  0
  -14.4925  -20.7608   34.2440 N   0  0  0  0  0  0  0  0  0  0  0  0
  -14.7688  -21.7390   35.2688 C   0  0  0  0  0  0  0  0  0  0  0  0
  -16.2624  -22.1477   35.4545 C   0  0  0  0  0  0  0  0  0  0  0  0
  -16.5911  -23.5839   35.7839 C   0  0  0  0  0  0  0  0  0  0  0  0
  -15.8903  -24.2973   36.7564 C   0  0  0  0  0  0  0  0  0  0  0  0
  -16.1375  -25.6566   36.9400 C   0  0  0  0  0  0  0  0  0  0  0  0
  -17.1065  -26.3076   36.1814 C   0  0  0  0  0  0  0  0  0  0  0  0
  -17.8669  -25.5927   35.2659 C   0  0  0  0  0  0  0  0  0  0  0  0
  -17.6169  -24.2361   35.0776 C   0  0  0  0  0  0  0  0  0  0  0  0
  -10.8145  -22.2678   28.4449 H   0  0  0  0  0  0  0  0  0  0  0  0
   -9.2522  -21.5345   28.3150 H   0  0  0  0  0  0  0  0  0  0  0  0
  -10.7637  -20.8852   27.4329 H   0  0  0  0  0  0  0  0  0  0  0  0
  -12.3732  -21.1017   30.3884 H   0  0  0  0  0  0  0  0  0  0  0  0
  -10.9904  -22.1522   30.6817 H   0  0  0  0  0  0  0  0  0  0  0  0
  -11.3183  -19.4130   32.0837 H   0  0  0  0  0  0  0  0  0  0  0  0
  -10.0194  -20.5498   32.2975 H   0  0  0  0  0  0  0  0  0  0  0  0
  -16.4930  -18.7673   31.0310 H   0  0  0  0  0  0  0  0  0  0  0  0
  -18.1129  -17.6336   32.4529 H   0  0  0  0  0  0  0  0  0  0  0  0
  -17.9395  -17.7496   34.9089 H   0  0  0  0  0  0  0  0  0  0  0  0
  -16.1969  -19.1601   35.9703 H   0  0  0  0  0  0  0  0  0  0  0  0
  -14.5842  -21.1860   36.1590 H   0  0  0  0  0  0  0  0  0  0  0  0
  -14.0100  -22.5098   35.2539 H   0  0  0  0  0  0  0  0  0  0  0  0
  -16.6684  -21.5668   36.2964 H   0  0  0  0  0  0  0  0  0  0  0  0
  -16.8698  -21.8331   34.5978 H   0  0  0  0  0  0  0  0  0  0  0  0
  -15.1102  -23.8284   37.3481 H   0  0  0  0  0  0  0  0  0  0  0  0
  -15.5687  -26.2101   37.6834 H   0  0  0  0  0  0  0  0  0  0  0  0
  -17.2910  -27.3679   36.3292 H   0  0  0  0  0  0  0  0  0  0  0  0
  -18.6386  -26.0887   34.6850 H   0  0  0  0  0  0  0  0  0  0  0  0
  -18.1853  -23.6953   34.3236 H   0  0  0  0  0  0  0  0  0  0  0  0
  1  2  1  0
  2  3  2  0
  2  4  1  0
  4  5  1  0
  5  6  1  0
  6  7  1  0
  7  8  2  0
  8  9  1  0
  9 10  2  0
 10 11  1  0
 11 12  2  0
 12 13  1  0
 13 14  2  0
 14 15  1  0
 15 16  1  0
 16 17  1  0
 17 18  1  0
 18 19  2  0
 19 20  1  0
 20 21  2  0
 21 22  1  0
 22 23  2  0
 15  7  1  0
 23 18  1  0
 14  9  1  0
  1 24  1  0
  1 25  1  0
  1 26  1  0
  4 27  1  0
  4 28  1  0
  5 29  1  0
  5 30  1  0
 10 31  1  0
 11 32  1  0
 12 33  1  0
 13 34  1  0
 16 35  1  0
 16 36  1  0
 17 37  1  0
 17 38  1  0
 19 39  1  0
 20 40  1  0
 21 41  1  0
 22 42  1  0
 23 43  1  0
M  END
>  <Energy>  (271) 
52.868969114705678

>  <compound_id>  (271) 
77354

>  <target_id>  (271) 
1

>  <reference_id>  (271) 
52

>  <inspiration_ids>  (271) 
[52, 76]

>  <energy_score>  (271) 
9.13284291421013

>  <distance_score>  (271) 
19.751571143690537

>  <path>  (271) 
/opt/xchem-fragalysis-2/maxwin/BulkDock/SCRATCH/511025/C77354-P52/C77354-P52.minimised.mol

>  <scratch_subdir>  (271) 
/opt/xchem-fragalysis-2/maxwin/BulkDock/SCRATCH/511025/C77354-P52

>  <fragmenstein_runtime>  (271) 
22.972744703292847

>  <fragmenstein_outcome>  (271) 
too moved

>  <fragmenstein_mode>  (271) 
expansion

>  <fragmenstein_error>  (271) 


$$$$
C77354-P76
     RDKit          3D

 43 45  0  0  0  0  0  0  0  0999 V2000
    0.4958  -12.1881   28.6149 C   0  0  0  0  0  0  0  0  0  0  0  0
   -0.9672  -12.6334   28.4683 C   0  0  0  0  0  0  0  0  0  0  0  0
   -1.5793  -12.2361   27.4757 O   0  0  0  0  0  0  0  0  0  0  0  0
   -1.5994  -13.5505   29.7116 C   0  0  0  0  0  0  0  0  0  0  0  0
   -3.0495  -14.4826   29.7523 C   0  0  0  0  0  0  0  0  0  0  0  0
   -3.9014  -15.4882   31.5466 S   0  0  0  0  0  0  0  0  0  0  0  0
   -5.4461  -16.9186   31.5149 C   0  0  0  0  0  0  0  0  0  0  0  0
   -6.2720  -17.2496   32.5734 N   0  0  0  0  0  0  0  0  0  0  0  0
   -7.4675  -18.0734   32.1446 C   0  0  0  0  0  0  0  0  0  0  0  0
   -9.0440  -19.0729   32.8509 C   0  0  0  0  0  0  0  0  0  0  0  0
  -10.1050  -20.2174   31.7032 C   0  0  0  0  0  0  0  0  0  0  0  0
   -9.9439  -20.4053   29.7697 C   0  0  0  0  0  0  0  0  0  0  0  0
   -8.3628  -19.2591   28.9600 C   0  0  0  0  0  0  0  0  0  0  0  0
   -7.1811  -18.4040   30.3370 C   0  0  0  0  0  0  0  0  0  0  0  0
   -5.6876  -17.6791   30.3287 N   0  0  0  0  0  0  0  0  0  0  0  0
   -4.7230  -17.3945   29.2523 C   0  0  0  0  0  0  0  0  0  0  0  0
   -4.2044  -17.9708   27.8825 C   0  0  0  0  0  0  0  0  0  0  0  0
   -3.5271  -19.3083   27.6676 C   0  0  0  0  0  0  0  0  0  0  0  0
   -4.0148  -20.1571   26.6599 C   0  0  0  0  0  0  0  0  0  0  0  0
   -3.5765  -21.4724   26.5532 C   0  0  0  0  0  0  0  0  0  0  0  0
   -2.5951  -21.9345   27.4221 C   0  0  0  0  0  0  0  0  0  0  0  0
   -2.0288  -21.0736   28.3660 C   0  0  0  0  0  0  0  0  0  0  0  0
   -2.4859  -19.7595   28.4874 C   0  0  0  0  0  0  0  0  0  0  0  0
    0.7196  -11.4216   27.8724 H   0  0  0  0  0  0  0  0  0  0  0  0
    0.6409  -11.7644   29.6114 H   0  0  0  0  0  0  0  0  0  0  0  0
    1.1454  -13.0539   28.4716 H   0  0  0  0  0  0  0  0  0  0  0  0
   -1.6938  -12.8502   30.5510 H   0  0  0  0  0  0  0  0  0  0  0  0
   -0.8096  -14.2694   29.9635 H   0  0  0  0  0  0  0  0  0  0  0  0
   -3.8706  -13.8177   29.4807 H   0  0  0  0  0  0  0  0  0  0  0  0
   -2.9265  -15.3011   29.0441 H   0  0  0  0  0  0  0  0  0  0  0  0
   -9.1568  -19.0341   33.9309 H   0  0  0  0  0  0  0  0  0  0  0  0
  -10.8934  -20.7943   32.1951 H   0  0  0  0  0  0  0  0  0  0  0  0
  -10.6742  -20.9954   29.2088 H   0  0  0  0  0  0  0  0  0  0  0  0
   -8.5213  -18.5401   28.1346 H   0  0  0  0  0  0  0  0  0  0  0  0
   -3.7760  -17.4125   29.8048 H   0  0  0  0  0  0  0  0  0  0  0  0
   -4.9843  -16.3599   29.0076 H   0  0  0  0  0  0  0  0  0  0  0  0
   -3.4079  -17.2772   27.5807 H   0  0  0  0  0  0  0  0  0  0  0  0
   -4.9571  -17.8278   27.1257 H   0  0  0  0  0  0  0  0  0  0  0  0
   -4.7729  -19.7955   25.9747 H   0  0  0  0  0  0  0  0  0  0  0  0
   -3.9942  -22.1310   25.7954 H   0  0  0  0  0  0  0  0  0  0  0  0
   -2.2437  -22.9608   27.3454 H   0  0  0  0  0  0  0  0  0  0  0  0
   -1.2430  -21.4369   29.0246 H   0  0  0  0  0  0  0  0  0  0  0  0
   -2.0638  -19.1200   29.2589 H   0  0  0  0  0  0  0  0  0  0  0  0
  1  2  1  0
  2  3  2  0
  2  4  1  0
  4  5  1  0
  5  6  1  0
  6  7  1  0
  7  8  2  0
  8  9  1  0
  9 10  2  0
 10 11  1  0
 11 12  2  0
 12 13  1  0
 13 14  2  0
 14 15  1  0
 15 16  1  0
 16 17  1  0
 17 18  1  0
 18 19  2  0
 19 20  1  0
 20 21  2  0
 21 22  1  0
 22 23  2  0
 15  7  1  0
 23 18  1  0
 14  9  1  0
  1 24  1  0
  1 25  1  0
  1 26  1  0
  4 27  1  0
  4 28  1  0
  5 29  1  0
  5 30  1  0
 10 31  1  0
 11 32  1  0
 12 33  1  0
 13 34  1  0
 16 35  1  0
 16 36  1  0
 17 37  1  0
 17 38  1  0
 19 39  1  0
 20 40  1  0
 21 41  1  0
 22 42  1  0
 23 43  1  0
M  END
>  <Energy>  (272) 
846.86746060532994

>  <compound_id>  (272) 
77354

>  <target_id>  (272) 
1

>  <reference_id>  (272) 
76

>  <inspiration_ids>  (272) 
[52, 76]

>  <energy_score>  (272) 
803.1313344048334

>  <distance_score>  (272) 
14.563640425278576

>  <path>  (272) 
/opt/xchem-fragalysis-2/maxwin/BulkDock/SCRATCH/511025/C77354-P76/C77354-P76.minimised.mol

>  <scratch_subdir>  (272) 
/opt/xchem-fragalysis-2/maxwin/BulkDock/SCRATCH/511025/C77354-P76

>  <fragmenstein_runtime>  (272) 
17.072761058807373

>  <fragmenstein_outcome>  (272) 
too moved

>  <fragmenstein_mode>  (272) 
expansion

>  <fragmenstein_error>  (272) 


$$$$
C77357-P52
     RDKit          3D

 51 53  0  0  0  0  0  0  0  0999 V2000
    7.9699  -11.8761   17.7157 C   0  0  0  0  0  0  0  0  0  0  0  0
    7.1890  -10.7482   17.0531 C   0  0  0  0  0  0  0  0  0  0  0  0
    8.5401   -9.5610   16.4221 N   0  0  0  0  0  0  0  0  0  0  0  0
    9.0600   -9.1630   14.7910 C   0  0  0  0  0  0  0  0  0  0  0  0
    8.5484   -9.5501   13.7502 O   0  0  0  0  0  0  0  0  0  0  0  0
   10.7101   -8.0568   14.4354 C   0  0  0  0  0  0  0  0  0  0  0  0
   11.1282   -6.0297   14.1638 C   0  0  0  0  0  0  0  0  0  0  0  0
   10.1715   -5.1249   13.7537 C   0  0  0  0  0  0  0  0  0  0  0  0
   10.0193   -3.4279   13.4462 C   0  0  0  0  0  0  0  0  0  0  0  0
   10.9410   -2.4805   13.6957 C   0  0  0  0  0  0  0  0  0  0  0  0
   11.9150   -3.1065   14.3413 C   0  0  0  0  0  0  0  0  0  0  0  0
   11.7750   -4.6055   14.5753 C   0  0  0  0  0  0  0  0  0  0  0  0
    5.4730  -10.4941   18.1082 C   0  0  0  0  0  0  0  0  0  0  0  0
    5.2053   -9.4515   16.7676 C   0  0  0  0  0  0  0  0  0  0  0  0
    4.3747  -11.4842   19.4405 N   0  0  0  0  0  0  0  0  0  0  0  0
    3.2973  -10.8929   20.9233 C   0  0  0  0  0  0  0  0  0  0  0  0
    3.1587   -9.7327   21.0712 O   0  0  0  0  0  0  0  0  0  0  0  0
    2.4478  -11.8777   22.4809 C   0  0  0  0  0  0  0  0  0  0  0  0
    3.2456  -12.9397   22.8819 C   0  0  0  0  0  0  0  0  0  0  0  0
    3.9784  -12.9847   24.1283 C   0  0  0  0  0  0  0  0  0  0  0  0
    3.4964  -12.5407   25.3732 C   0  0  0  0  0  0  0  0  0  0  0  0
    2.1032  -12.0471   25.4254 C   0  0  0  0  0  0  0  0  0  0  0  0
    1.6992  -11.1161   26.3315 N   0  0  0  0  0  0  0  0  0  0  0  0
    0.6843  -10.6443   25.6346 C   0  0  0  0  0  0  0  0  0  0  0  0
    0.4243  -11.9942   25.4213 N   0  0  0  0  0  0  0  0  0  0  0  0
   -0.9935  -12.9432   26.5635 C   0  0  0  0  0  0  0  0  0  0  0  0
    1.3998  -11.5741   23.9599 C   0  0  0  0  0  0  0  0  0  0  0  0
    8.9734  -11.9840   17.2943 H   0  0  0  0  0  0  0  0  0  0  0  0
    7.4408  -12.8232   17.5613 H   0  0  0  0  0  0  0  0  0  0  0  0
    8.0448  -11.7479   18.7982 H   0  0  0  0  0  0  0  0  0  0  0  0
    6.8487  -11.1251   16.0767 H   0  0  0  0  0  0  0  0  0  0  0  0
    9.1865   -9.1763   17.0769 H   0  0  0  0  0  0  0  0  0  0  0  0
   11.1099   -8.4630   13.5371 H   0  0  0  0  0  0  0  0  0  0  0  0
   11.3854   -8.8533   14.7682 H   0  0  0  0  0  0  0  0  0  0  0  0
    9.4036   -5.6637   13.2059 H   0  0  0  0  0  0  0  0  0  0  0  0
    9.1592   -3.1277   12.8373 H   0  0  0  0  0  0  0  0  0  0  0  0
   10.8602   -1.4322   13.4812 H   0  0  0  0  0  0  0  0  0  0  0  0
   12.6711   -2.5454   14.8866 H   0  0  0  0  0  0  0  0  0  0  0  0
   12.0278   -4.4153   15.6608 H   0  0  0  0  0  0  0  0  0  0  0  0
    5.1330  -11.3907   17.5452 H   0  0  0  0  0  0  0  0  0  0  0  0
    6.1365   -8.9040   16.6642 H   0  0  0  0  0  0  0  0  0  0  0  0
    5.0307  -10.0548   15.8656 H   0  0  0  0  0  0  0  0  0  0  0  0
    4.4986   -8.6151   16.7055 H   0  0  0  0  0  0  0  0  0  0  0  0
    4.3324  -12.4955   19.3903 H   0  0  0  0  0  0  0  0  0  0  0  0
    3.5320  -13.6952   22.1988 H   0  0  0  0  0  0  0  0  0  0  0  0
    4.8519  -13.6025   24.0433 H   0  0  0  0  0  0  0  0  0  0  0  0
    3.8654  -12.7050   26.3561 H   0  0  0  0  0  0  0  0  0  0  0  0
    0.1141   -9.7538   25.8305 H   0  0  0  0  0  0  0  0  0  0  0  0
   -0.6010  -13.5379   27.4310 H   0  0  0  0  0  0  0  0  0  0  0  0
   -1.8613  -13.1406   25.8324 H   0  0  0  0  0  0  0  0  0  0  0  0
   -1.7376  -12.5889   27.2891 H   0  0  0  0  0  0  0  0  0  0  0  0
  1  2  1  0
  2  3  1  0
  3  4  1  0
  4  5  2  0
  4  6  1  0
  6  7  1  0
  7  8  2  0
  8  9  1  0
  9 10  2  0
 10 11  1  0
 11 12  2  0
  2 13  1  0
 13 14  1  0
 13 15  1  0
 15 16  1  0
 16 17  2  0
 16 18  1  0
 18 19  2  0
 19 20  1  0
 20 21  2  0
 21 22  1  0
 22 23  1  0
 23 24  2  0
 24 25  1  0
 25 26  1  0
 25 27  1  0
 12  7  1  0
 27 18  1  0
 27 22  2  0
  1 28  1  0
  1 29  1  0
  1 30  1  0
  2 31  1  0
  3 32  1  0
  6 33  1  0
  6 34  1  0
  8 35  1  0
  9 36  1  0
 10 37  1  0
 11 38  1  0
 12 39  1  0
 13 40  1  0
 14 41  1  0
 14 42  1  0
 14 43  1  0
 15 44  1  0
 19 45  1  0
 20 46  1  0
 21 47  1  0
 24 48  1  0
 26 49  1  0
 26 50  1  0
 26 51  1  0
M  END
>  <Energy>  (273) 
1485.5650140089056

>  <compound_id>  (273) 
77357

>  <target_id>  (273) 
1

>  <reference_id>  (273) 
52

>  <inspiration_ids>  (273) 
[52, 76]

>  <energy_score>  (273) 
1408.0131594973464

>  <distance_score>  (273) 
14.81163596901733

>  <path>  (273) 
/opt/xchem-fragalysis-2/maxwin/BulkDock/SCRATCH/511025/C77357-P52/C77357-P52.minimised.mol

>  <scratch_subdir>  (273) 
/opt/xchem-fragalysis-2/maxwin/BulkDock/SCRATCH/511025/C77357-P52

>  <fragmenstein_runtime>  (273) 
39.32221698760986

>  <fragmenstein_outcome>  (273) 
too moved

>  <fragmenstein_mode>  (273) 
expansion

>  <fragmenstein_error>  (273) 


$$$$
C77357-P76
     RDKit          3D

 51 53  0  0  0  0  0  0  0  0999 V2000
    7.6153  -12.7907   17.6227 C   0  0  0  0  0  0  0  0  0  0  0  0
    6.6041  -11.8136   17.0450 C   0  0  0  0  0  0  0  0  0  0  0  0
    7.4539  -10.6419   16.3457 N   0  0  0  0  0  0  0  0  0  0  0  0
    8.9457  -10.3524   16.3612 C   0  0  0  0  0  0  0  0  0  0  0  0
    9.8608  -10.9884   16.8400 O   0  0  0  0  0  0  0  0  0  0  0  0
    9.6150   -8.6618   15.6562 C   0  0  0  0  0  0  0  0  0  0  0  0
    8.2292   -7.1711   14.9681 C   0  0  0  0  0  0  0  0  0  0  0  0
    7.0930   -6.1450   15.9334 C   0  0  0  0  0  0  0  0  0  0  0  0
    5.7189   -6.3094   16.4370 C   0  0  0  0  0  0  0  0  0  0  0  0
    4.8750   -7.2703   15.9289 C   0  0  0  0  0  0  0  0  0  0  0  0
    5.3116   -8.0308   14.8731 C   0  0  0  0  0  0  0  0  0  0  0  0
    6.6901   -7.9984   14.4601 C   0  0  0  0  0  0  0  0  0  0  0  0
    5.2855  -12.6222   16.3180 C   0  0  0  0  0  0  0  0  0  0  0  0
    4.3734  -11.5207   15.7732 C   0  0  0  0  0  0  0  0  0  0  0  0
    4.4570  -13.8562   17.1047 N   0  0  0  0  0  0  0  0  0  0  0  0
    3.0220  -14.3953   16.9066 C   0  0  0  0  0  0  0  0  0  0  0  0
    2.1305  -14.0001   16.1928 O   0  0  0  0  0  0  0  0  0  0  0  0
    2.5646  -15.8059   17.6587 C   0  0  0  0  0  0  0  0  0  0  0  0
    3.5562  -16.8017   17.8256 C   0  0  0  0  0  0  0  0  0  0  0  0
    3.3062  -18.1208   18.2825 C   0  0  0  0  0  0  0  0  0  0  0  0
    2.0429  -18.5357   18.7024 C   0  0  0  0  0  0  0  0  0  0  0  0
    0.9969  -17.6149   18.6281 C   0  0  0  0  0  0  0  0  0  0  0  0
   -0.2772  -17.8376   19.0985 N   0  0  0  0  0  0  0  0  0  0  0  0
   -0.9492  -16.8090   18.6753 C   0  0  0  0  0  0  0  0  0  0  0  0
   -0.1539  -15.9601   17.9346 N   0  0  0  0  0  0  0  0  0  0  0  0
   -0.7509  -14.8903   17.1873 C   0  0  0  0  0  0  0  0  0  0  0  0
    1.1964  -16.3336   18.0234 C   0  0  0  0  0  0  0  0  0  0  0  0
    8.2112  -13.2550   16.8305 H   0  0  0  0  0  0  0  0  0  0  0  0
    8.2920  -12.2996   18.3292 H   0  0  0  0  0  0  0  0  0  0  0  0
    7.1115  -13.5902   18.1750 H   0  0  0  0  0  0  0  0  0  0  0  0
    6.1542  -11.2855   17.8940 H   0  0  0  0  0  0  0  0  0  0  0  0
    6.9858   -9.9415   15.7869 H   0  0  0  0  0  0  0  0  0  0  0  0
   10.6446   -9.1134   15.7689 H   0  0  0  0  0  0  0  0  0  0  0  0
    9.9477   -9.2986   14.7807 H   0  0  0  0  0  0  0  0  0  0  0  0
    7.5382   -5.2196   16.1483 H   0  0  0  0  0  0  0  0  0  0  0  0
    5.2985   -5.6416   17.1805 H   0  0  0  0  0  0  0  0  0  0  0  0
    3.8451   -7.3395   16.2705 H   0  0  0  0  0  0  0  0  0  0  0  0
    4.6092   -8.6606   14.3294 H   0  0  0  0  0  0  0  0  0  0  0  0
    6.6930   -8.5205   13.4663 H   0  0  0  0  0  0  0  0  0  0  0  0
    5.7119  -13.1615   15.4626 H   0  0  0  0  0  0  0  0  0  0  0  0
    3.9584  -10.9104   16.5776 H   0  0  0  0  0  0  0  0  0  0  0  0
    4.9214  -10.8753   15.0845 H   0  0  0  0  0  0  0  0  0  0  0  0
    3.5367  -11.9530   15.2169 H   0  0  0  0  0  0  0  0  0  0  0  0
    4.9141  -14.3808   17.8458 H   0  0  0  0  0  0  0  0  0  0  0  0
    4.5788  -16.5719   17.5258 H   0  0  0  0  0  0  0  0  0  0  0  0
    4.1377  -18.8223   18.3373 H   0  0  0  0  0  0  0  0  0  0  0  0
    1.8757  -19.5274   19.1074 H   0  0  0  0  0  0  0  0  0  0  0  0
   -2.0085  -16.6441   18.8246 H   0  0  0  0  0  0  0  0  0  0  0  0
   -0.1418  -13.9958   17.2890 H   0  0  0  0  0  0  0  0  0  0  0  0
   -0.7944  -15.1922   16.1376 H   0  0  0  0  0  0  0  0  0  0  0  0
   -1.7593  -14.6810   17.5541 H   0  0  0  0  0  0  0  0  0  0  0  0
  1  2  1  0
  2  3  1  0
  3  4  1  0
  4  5  2  0
  4  6  1  0
  6  7  1  0
  7  8  2  0
  8  9  1  0
  9 10  2  0
 10 11  1  0
 11 12  2  0
  2 13  1  0
 13 14  1  0
 13 15  1  0
 15 16  1  0
 16 17  2  0
 16 18  1  0
 18 19  2  0
 19 20  1  0
 20 21  2  0
 21 22  1  0
 22 23  1  0
 23 24  2  0
 24 25  1  0
 25 26  1  0
 25 27  1  0
 12  7  1  0
 27 18  1  0
 27 22  2  0
  1 28  1  0
  1 29  1  0
  1 30  1  0
  2 31  1  0
  3 32  1  0
  6 33  1  0
  6 34  1  0
  8 35  1  0
  9 36  1  0
 10 37  1  0
 11 38  1  0
 12 39  1  0
 13 40  1  0
 14 41  1  0
 14 42  1  0
 14 43  1  0
 15 44  1  0
 19 45  1  0
 20 46  1  0
 21 47  1  0
 24 48  1  0
 26 49  1  0
 26 50  1  0
 26 51  1  0
M  END
>  <Energy>  (274) 
546.65559600803601

>  <compound_id>  (274) 
77357

>  <target_id>  (274) 
1

>  <reference_id>  (274) 
76

>  <inspiration_ids>  (274) 
[52, 76]

>  <energy_score>  (274) 
469.10374149647873

>  <distance_score>  (274) 
16.39583189806062

>  <path>  (274) 
/opt/xchem-fragalysis-2/maxwin/BulkDock/SCRATCH/511025/C77357-P76/C77357-P76.minimised.mol

>  <scratch_subdir>  (274) 
/opt/xchem-fragalysis-2/maxwin/BulkDock/SCRATCH/511025/C77357-P76

>  <fragmenstein_runtime>  (274) 
46.02921390533447

>  <fragmenstein_outcome>  (274) 
too moved

>  <fragmenstein_mode>  (274) 
expansion

>  <fragmenstein_error>  (274) 


$$$$
C77359-P52
     RDKit          3D

 41 43  0  0  0  0  0  0  0  0999 V2000
    6.6934  -18.3214   18.2976 C   0  0  0  0  0  0  0  0  0  0  0  0
    6.7107  -17.6409   19.6698 C   0  0  0  0  0  0  0  0  0  0  0  0
    5.5505  -18.0610   20.5125 N   0  0  0  0  0  0  0  0  0  0  0  0
    4.3571  -18.8557   20.1820 C   0  0  0  0  0  0  0  0  0  0  0  0
    3.9778  -19.2973   19.1305 O   0  0  0  0  0  0  0  0  0  0  0  0
    3.5259  -19.2551   21.4662 C   0  0  0  0  0  0  0  0  0  0  0  0
    2.0193  -19.6501   21.2573 C   0  0  0  0  0  0  0  0  0  0  0  0
    1.3250  -20.2852   22.5918 C   0  0  0  0  0  0  0  0  0  0  0  0
   -0.1300  -20.5719   22.7493 N   0  0  0  0  0  0  0  0  0  0  0  0
   -1.1418  -20.1043   21.9437 C   0  0  0  0  0  0  0  0  0  0  0  0
   -2.3484  -20.3576   22.4135 N   0  0  0  0  0  0  0  0  0  0  0  0
   -2.1483  -21.0213   23.5992 C   0  0  0  0  0  0  0  0  0  0  0  0
   -3.1021  -21.4580   24.5458 C   0  0  0  0  0  0  0  0  0  0  0  0
   -2.6707  -22.0644   25.7294 C   0  0  0  0  0  0  0  0  0  0  0  0
   -1.3101  -22.2603   25.9542 C   0  0  0  0  0  0  0  0  0  0  0  0
   -0.3424  -21.8455   25.0138 C   0  0  0  0  0  0  0  0  0  0  0  0
   -0.7782  -21.2127   23.8306 C   0  0  0  0  0  0  0  0  0  0  0  0
    7.0572  -16.1417   19.5343 C   0  0  0  0  0  0  0  0  0  0  0  0
    7.1399  -15.2686   18.4481 C   0  0  0  0  0  0  0  0  0  0  0  0
    7.6933  -14.0451   18.9107 C   0  0  0  0  0  0  0  0  0  0  0  0
    7.9349  -14.2330   20.2488 C   0  0  0  0  0  0  0  0  0  0  0  0
    7.5555  -15.4849   20.6378 O   0  0  0  0  0  0  0  0  0  0  0  0
    5.8543  -17.9677   17.6882 H   0  0  0  0  0  0  0  0  0  0  0  0
    6.6033  -19.4084   18.3989 H   0  0  0  0  0  0  0  0  0  0  0  0
    7.6169  -18.1209   17.7426 H   0  0  0  0  0  0  0  0  0  0  0  0
    7.5663  -18.0679   20.2117 H   0  0  0  0  0  0  0  0  0  0  0  0
    5.5092  -17.7884   21.4975 H   0  0  0  0  0  0  0  0  0  0  0  0
    4.0451  -20.1296   21.8802 H   0  0  0  0  0  0  0  0  0  0  0  0
    3.5881  -18.4810   22.2237 H   0  0  0  0  0  0  0  0  0  0  0  0
    1.4371  -18.8086   20.8742 H   0  0  0  0  0  0  0  0  0  0  0  0
    1.9592  -20.4204   20.4780 H   0  0  0  0  0  0  0  0  0  0  0  0
    1.5656  -19.6278   23.4322 H   0  0  0  0  0  0  0  0  0  0  0  0
    1.8146  -21.2493   22.7784 H   0  0  0  0  0  0  0  0  0  0  0  0
   -0.9337  -19.5666   21.0283 H   0  0  0  0  0  0  0  0  0  0  0  0
   -4.1568  -21.2914   24.3567 H   0  0  0  0  0  0  0  0  0  0  0  0
   -3.4011  -22.3707   26.4700 H   0  0  0  0  0  0  0  0  0  0  0  0
   -0.9815  -22.7340   26.8764 H   0  0  0  0  0  0  0  0  0  0  0  0
    0.7155  -21.9790   25.2140 H   0  0  0  0  0  0  0  0  0  0  0  0
    6.8534  -15.5054   17.4320 H   0  0  0  0  0  0  0  0  0  0  0  0
    7.9028  -13.1545   18.3355 H   0  0  0  0  0  0  0  0  0  0  0  0
    8.3530  -13.6139   21.0300 H   0  0  0  0  0  0  0  0  0  0  0  0
  1  2  1  0
  2  3  1  0
  3  4  1  0
  4  5  2  0
  4  6  1  0
  6  7  1  0
  7  8  1  0
  8  9  1  0
  9 10  1  0
 10 11  2  0
 11 12  1  0
 12 13  2  0
 13 14  1  0
 14 15  2  0
 15 16  1  0
 16 17  2  0
  2 18  1  0
 18 19  2  0
 19 20  1  0
 20 21  2  0
 21 22  1  0
 17  9  1  0
 22 18  1  0
 17 12  1  0
  1 23  1  0
  1 24  1  0
  1 25  1  0
  2 26  1  0
  3 27  1  0
  6 28  1  0
  6 29  1  0
  7 30  1  0
  7 31  1  0
  8 32  1  0
  8 33  1  0
 10 34  1  0
 13 35  1  0
 14 36  1  0
 15 37  1  0
 16 38  1  0
 19 39  1  0
 20 40  1  0
 21 41  1  0
M  END
>  <Energy>  (275) 
24.117140502066547

>  <compound_id>  (275) 
77359

>  <target_id>  (275) 
1

>  <reference_id>  (275) 
52

>  <inspiration_ids>  (275) 
[52, 76]

>  <energy_score>  (275) 
-1.632961331643287

>  <distance_score>  (275) 
17.078275530379194

>  <path>  (275) 
/opt/xchem-fragalysis-2/maxwin/BulkDock/SCRATCH/511025/C77359-P52/C77359-P52.minimised.mol

>  <scratch_subdir>  (275) 
/opt/xchem-fragalysis-2/maxwin/BulkDock/SCRATCH/511025/C77359-P52

>  <fragmenstein_runtime>  (275) 
33.14088034629822

>  <fragmenstein_outcome>  (275) 
too moved

>  <fragmenstein_mode>  (275) 
expansion

>  <fragmenstein_error>  (275) 


$$$$
C77359-P76
     RDKit          3D

 41 43  0  0  0  0  0  0  0  0999 V2000
    7.1914  -10.7520   28.5653 C   0  0  0  0  0  0  0  0  0  0  0  0
    7.2301  -11.8327   27.4807 C   0  0  0  0  0  0  0  0  0  0  0  0
    6.0613  -12.7506   27.5740 N   0  0  0  0  0  0  0  0  0  0  0  0
    5.1602  -13.0502   28.6956 C   0  0  0  0  0  0  0  0  0  0  0  0
    5.0927  -12.5693   29.7950 O   0  0  0  0  0  0  0  0  0  0  0  0
    4.1804  -14.2562   28.4111 C   0  0  0  0  0  0  0  0  0  0  0  0
    2.6825  -14.0697   28.8881 C   0  0  0  0  0  0  0  0  0  0  0  0
    1.9752  -15.4224   29.4652 C   0  0  0  0  0  0  0  0  0  0  0  0
    0.5174  -15.5284   29.7691 N   0  0  0  0  0  0  0  0  0  0  0  0
   -0.4177  -14.5270   29.6579 C   0  0  0  0  0  0  0  0  0  0  0  0
   -1.6472  -14.9363   29.8947 N   0  0  0  0  0  0  0  0  0  0  0  0
   -1.5469  -16.2661   30.2021 C   0  0  0  0  0  0  0  0  0  0  0  0
   -2.5700  -17.1812   30.5364 C   0  0  0  0  0  0  0  0  0  0  0  0
   -2.2386  -18.5054   30.8328 C   0  0  0  0  0  0  0  0  0  0  0  0
   -0.9046  -18.9061   30.7927 C   0  0  0  0  0  0  0  0  0  0  0  0
    0.1310  -18.0079   30.4493 C   0  0  0  0  0  0  0  0  0  0  0  0
   -0.2076  -16.6753   30.1514 C   0  0  0  0  0  0  0  0  0  0  0  0
    7.4925  -11.1947   26.0973 C   0  0  0  0  0  0  0  0  0  0  0  0
    7.5680   -9.8795   25.6376 C   0  0  0  0  0  0  0  0  0  0  0  0
    7.9984   -9.9136   24.2855 C   0  0  0  0  0  0  0  0  0  0  0  0
    8.1887  -11.2411   23.9941 C   0  0  0  0  0  0  0  0  0  0  0  0
    7.8922  -12.0198   25.0744 O   0  0  0  0  0  0  0  0  0  0  0  0
    6.2894  -10.1354   28.4797 H   0  0  0  0  0  0  0  0  0  0  0  0
    8.0626  -10.0903   28.5026 H   0  0  0  0  0  0  0  0  0  0  0  0
    7.2029  -11.1961   29.5657 H   0  0  0  0  0  0  0  0  0  0  0  0
    8.0965  -12.4747   27.6868 H   0  0  0  0  0  0  0  0  0  0  0  0
    5.8884  -13.4099   26.8241 H   0  0  0  0  0  0  0  0  0  0  0  0
    4.2058  -14.5218   27.3519 H   0  0  0  0  0  0  0  0  0  0  0  0
    4.6134  -15.1074   28.9520 H   0  0  0  0  0  0  0  0  0  0  0  0
    2.6263  -13.3126   29.6783 H   0  0  0  0  0  0  0  0  0  0  0  0
    2.0686  -13.7030   28.0613 H   0  0  0  0  0  0  0  0  0  0  0  0
    2.1635  -16.2294   28.7471 H   0  0  0  0  0  0  0  0  0  0  0  0
    2.4741  -15.6834   30.4063 H   0  0  0  0  0  0  0  0  0  0  0  0
   -0.1490  -13.5164   29.3804 H   0  0  0  0  0  0  0  0  0  0  0  0
   -3.6008  -16.8436   30.5701 H   0  0  0  0  0  0  0  0  0  0  0  0
   -3.0214  -19.2116   31.0988 H   0  0  0  0  0  0  0  0  0  0  0  0
   -0.6520  -19.9378   31.0306 H   0  0  0  0  0  0  0  0  0  0  0  0
    1.1622  -18.3453   30.4223 H   0  0  0  0  0  0  0  0  0  0  0  0
    7.3526   -8.9968   26.2242 H   0  0  0  0  0  0  0  0  0  0  0  0
    8.1628   -9.0807   23.6171 H   0  0  0  0  0  0  0  0  0  0  0  0
    8.5137  -11.7770   23.1125 H   0  0  0  0  0  0  0  0  0  0  0  0
  1  2  1  0
  2  3  1  0
  3  4  1  0
  4  5  2  0
  4  6  1  0
  6  7  1  0
  7  8  1  0
  8  9  1  0
  9 10  1  0
 10 11  2  0
 11 12  1  0
 12 13  2  0
 13 14  1  0
 14 15  2  0
 15 16  1  0
 16 17  2  0
  2 18  1  0
 18 19  2  0
 19 20  1  0
 20 21  2  0
 21 22  1  0
 17  9  1  0
 22 18  1  0
 17 12  1  0
  1 23  1  0
  1 24  1  0
  1 25  1  0
  2 26  1  0
  3 27  1  0
  6 28  1  0
  6 29  1  0
  7 30  1  0
  7 31  1  0
  8 32  1  0
  8 33  1  0
 10 34  1  0
 13 35  1  0
 14 36  1  0
 15 37  1  0
 16 38  1  0
 19 39  1  0
 20 40  1  0
 21 41  1  0
M  END
>  <Energy>  (276) 
20.945941212108398

>  <compound_id>  (276) 
77359

>  <target_id>  (276) 
1

>  <reference_id>  (276) 
76

>  <inspiration_ids>  (276) 
[52, 76]

>  <energy_score>  (276) 
-4.804160621603501

>  <distance_score>  (276) 
16.170176983039095

>  <path>  (276) 
/opt/xchem-fragalysis-2/maxwin/BulkDock/SCRATCH/511025/C77359-P76/C77359-P76.minimised.mol

>  <scratch_subdir>  (276) 
/opt/xchem-fragalysis-2/maxwin/BulkDock/SCRATCH/511025/C77359-P76

>  <fragmenstein_runtime>  (276) 
21.583996772766113

>  <fragmenstein_outcome>  (276) 
too moved

>  <fragmenstein_mode>  (276) 
expansion

>  <fragmenstein_error>  (276) 


$$$$
C46835-P99
     RDKit          3D

 38 40  0  0  0  0  0  0  0  0999 V2000
  -12.0631  -12.3147   10.9366 C   0  0  0  0  0  0  0  0  0  0  0  0
  -12.1540  -13.8568   10.8868 C   0  0  0  0  0  0  0  0  0  0  0  0
  -11.8214  -14.2766    9.4416 C   0  0  0  0  0  0  0  0  0  0  0  0
  -13.5981  -14.2211   11.2485 C   0  0  0  0  0  0  0  0  0  0  0  0
  -14.3128  -13.5333   11.9735 O   0  0  0  0  0  0  0  0  0  0  0  0
  -14.0596  -15.3803   10.7275 O   0  0  0  0  0  0  0  0  0  0  0  0
  -11.2660  -14.4993   11.8576 N   0  0  0  0  0  0  0  0  0  0  0  0
  -10.6204  -13.9523   12.8844 C   0  0  0  0  0  0  0  0  0  0  0  0
  -10.1112  -15.0510   13.5465 C   0  0  0  0  0  0  0  0  0  0  0  0
  -10.3679  -16.3630   12.9170 C   0  0  0  0  0  0  0  0  0  0  0  0
  -10.3685  -18.0613   13.3892 N   0  0  0  0  0  0  0  0  0  0  0  0
   -9.6527  -19.5246   12.5692 C   0  0  0  0  0  0  0  0  0  0  0  0
   -8.9628  -19.5097   11.5678 O   0  0  0  0  0  0  0  0  0  0  0  0
  -10.0143  -21.3434   13.0784 C   0  0  0  0  0  0  0  0  0  0  0  0
   -9.2794  -22.1220   14.1542 C   0  0  0  0  0  0  0  0  0  0  0  0
   -9.4155  -23.4141   14.4718 C   0  0  0  0  0  0  0  0  0  0  0  0
  -10.1458  -24.2776   13.7303 N   0  0  0  0  0  0  0  0  0  0  0  0
  -10.4090  -25.5852   13.9498 N   0  0  0  0  0  0  0  0  0  0  0  0
  -11.1318  -25.9443   12.8916 C   0  0  0  0  0  0  0  0  0  0  0  0
  -11.2967  -24.8764   11.9832 C   0  0  0  0  0  0  0  0  0  0  0  0
  -10.6453  -23.8013   12.5548 C   0  0  0  0  0  0  0  0  0  0  0  0
  -10.3538  -22.3981   12.2159 C   0  0  0  0  0  0  0  0  0  0  0  0
  -11.0865  -15.8258   11.8066 N   0  0  0  0  0  0  0  0  0  0  0  0
  -12.3068  -11.9146   11.9280 H   0  0  0  0  0  0  0  0  0  0  0  0
  -12.7712  -11.8581   10.2355 H   0  0  0  0  0  0  0  0  0  0  0  0
  -11.0576  -11.9698   10.6813 H   0  0  0  0  0  0  0  0  0  0  0  0
  -12.5832  -13.9103    8.7455 H   0  0  0  0  0  0  0  0  0  0  0  0
  -11.7836  -15.3623    9.3095 H   0  0  0  0  0  0  0  0  0  0  0  0
  -10.8476  -13.8836    9.1289 H   0  0  0  0  0  0  0  0  0  0  0  0
  -13.3522  -16.0043   10.4494 H   0  0  0  0  0  0  0  0  0  0  0  0
  -10.5342  -12.8939   13.0834 H   0  0  0  0  0  0  0  0  0  0  0  0
   -9.3987  -14.8077   14.3113 H   0  0  0  0  0  0  0  0  0  0  0  0
  -10.8231  -18.3424   14.2347 H   0  0  0  0  0  0  0  0  0  0  0  0
   -8.3199  -21.8488   14.5053 H   0  0  0  0  0  0  0  0  0  0  0  0
   -8.8714  -23.8315   15.2717 H   0  0  0  0  0  0  0  0  0  0  0  0
  -11.4944  -26.9612   12.8125 H   0  0  0  0  0  0  0  0  0  0  0  0
  -11.8184  -24.8897   11.0370 H   0  0  0  0  0  0  0  0  0  0  0  0
  -10.4077  -22.2689   11.1533 H   0  0  0  0  0  0  0  0  0  0  0  0
  1  2  1  0
  2  3  1  0
  2  4  1  0
  4  5  2  0
  4  6  1  0
  2  7  1  0
  7  8  1  0
  8  9  2  0
  9 10  1  0
 10 11  1  0
 11 12  1  0
 12 13  2  0
 12 14  1  0
 14 15  1  0
 15 16  2  0
 16 17  1  0
 17 18  1  0
 18 19  2  0
 19 20  1  0
 20 21  2  0
 21 22  1  0
 10 23  2  0
 23  7  1  0
 22 14  2  0
 21 17  1  0
  1 24  1  0
  1 25  1  0
  1 26  1  0
  3 27  1  0
  3 28  1  0
  3 29  1  0
  6 30  1  0
  8 31  1  0
  9 32  1  0
 11 33  1  0
 15 34  1  0
 16 35  1  0
 19 36  1  0
 20 37  1  0
 22 38  1  0
M  END
>  <Energy>  (277) 
256.76950925304556

>  <compound_id>  (277) 
46835

>  <target_id>  (277) 
1

>  <reference_id>  (277) 
99

>  <inspiration_ids>  (277) 
[99, 68]

>  <energy_score>  (277) 
184.4627112131067

>  <distance_score>  (277) 
15.194428282993192

>  <path>  (277) 
/opt/xchem-fragalysis-2/maxwin/BulkDock/SCRATCH/511025/C46835-P99/C46835-P99.minimised.mol

>  <scratch_subdir>  (277) 
/opt/xchem-fragalysis-2/maxwin/BulkDock/SCRATCH/511025/C46835-P99

>  <fragmenstein_runtime>  (277) 
20.247530698776245

>  <fragmenstein_outcome>  (277) 
too moved

>  <fragmenstein_mode>  (277) 
expansion

>  <fragmenstein_error>  (277) 


$$$$
C46835-P68
     RDKit          3D

 38 40  0  0  0  0  0  0  0  0999 V2000
  -13.7096  -12.7568   11.9687 C   0  0  0  0  0  0  0  0  0  0  0  0
  -12.6297  -12.1803   12.8982 C   0  0  0  0  0  0  0  0  0  0  0  0
  -13.2376  -11.9314   14.2938 C   0  0  0  0  0  0  0  0  0  0  0  0
  -12.2234  -10.8468   12.3068 C   0  0  0  0  0  0  0  0  0  0  0  0
  -12.4577   -9.7473   12.7861 O   0  0  0  0  0  0  0  0  0  0  0  0
  -11.5646  -10.9590   11.1404 O   0  0  0  0  0  0  0  0  0  0  0  0
  -11.4512  -13.0456   13.0482 N   0  0  0  0  0  0  0  0  0  0  0  0
  -10.2666  -12.6796   13.6072 C   0  0  0  0  0  0  0  0  0  0  0  0
   -9.6148  -13.8618   13.8635 C   0  0  0  0  0  0  0  0  0  0  0  0
  -10.4064  -14.9407   13.3226 C   0  0  0  0  0  0  0  0  0  0  0  0
  -10.2511  -16.3519   13.0316 N   0  0  0  0  0  0  0  0  0  0  0  0
   -9.1285  -17.2490   13.2126 C   0  0  0  0  0  0  0  0  0  0  0  0
   -8.0626  -17.0679   13.7292 O   0  0  0  0  0  0  0  0  0  0  0  0
   -9.4927  -19.0029   12.5805 C   0  0  0  0  0  0  0  0  0  0  0  0
  -10.6228  -19.5338   13.6161 C   0  0  0  0  0  0  0  0  0  0  0  0
  -11.0006  -20.8017   13.6249 C   0  0  0  0  0  0  0  0  0  0  0  0
  -10.3738  -21.8913   13.1934 N   0  0  0  0  0  0  0  0  0  0  0  0
  -10.7525  -23.1908   13.2285 N   0  0  0  0  0  0  0  0  0  0  0  0
   -9.5977  -23.8226   13.0800 C   0  0  0  0  0  0  0  0  0  0  0  0
   -8.5766  -22.8945   12.7893 C   0  0  0  0  0  0  0  0  0  0  0  0
   -9.1973  -21.6663   12.5818 C   0  0  0  0  0  0  0  0  0  0  0  0
   -8.8424  -20.1515   11.9940 C   0  0  0  0  0  0  0  0  0  0  0  0
  -11.5518  -14.3821   12.8692 N   0  0  0  0  0  0  0  0  0  0  0  0
  -14.4574  -11.9973   11.7097 H   0  0  0  0  0  0  0  0  0  0  0  0
  -13.2830  -13.1269   11.0290 H   0  0  0  0  0  0  0  0  0  0  0  0
  -14.2453  -13.5786   12.4468 H   0  0  0  0  0  0  0  0  0  0  0  0
  -13.4461  -12.8688   14.8164 H   0  0  0  0  0  0  0  0  0  0  0  0
  -14.1727  -11.3635   14.2265 H   0  0  0  0  0  0  0  0  0  0  0  0
  -12.5561  -11.3576   14.9341 H   0  0  0  0  0  0  0  0  0  0  0  0
  -11.2231  -10.0708   10.9115 H   0  0  0  0  0  0  0  0  0  0  0  0
  -10.0058  -11.6551   13.8344 H   0  0  0  0  0  0  0  0  0  0  0  0
   -8.6477  -13.9139   14.3470 H   0  0  0  0  0  0  0  0  0  0  0  0
  -10.9193  -16.7930   12.5046 H   0  0  0  0  0  0  0  0  0  0  0  0
  -11.1724  -18.7089   14.0492 H   0  0  0  0  0  0  0  0  0  0  0  0
  -12.0438  -20.8796   13.6588 H   0  0  0  0  0  0  0  0  0  0  0  0
   -9.5521  -24.8997   13.1661 H   0  0  0  0  0  0  0  0  0  0  0  0
   -7.5369  -23.0871   12.5508 H   0  0  0  0  0  0  0  0  0  0  0  0
   -7.8379  -20.0591   11.5802 H   0  0  0  0  0  0  0  0  0  0  0  0
  1  2  1  0
  2  3  1  0
  2  4  1  0
  4  5  2  0
  4  6  1  0
  2  7  1  0
  7  8  1  0
  8  9  2  0
  9 10  1  0
 10 11  1  0
 11 12  1  0
 12 13  2  0
 12 14  1  0
 14 15  1  0
 15 16  2  0
 16 17  1  0
 17 18  1  0
 18 19  2  0
 19 20  1  0
 20 21  2  0
 21 22  1  0
 10 23  2  0
 23  7  1  0
 22 14  2  0
 21 17  1  0
  1 24  1  0
  1 25  1  0
  1 26  1  0
  3 27  1  0
  3 28  1  0
  3 29  1  0
  6 30  1  0
  8 31  1  0
  9 32  1  0
 11 33  1  0
 15 34  1  0
 16 35  1  0
 19 36  1  0
 20 37  1  0
 22 38  1  0
M  END
>  <Energy>  (278) 
127.67939225049609

>  <compound_id>  (278) 
46835

>  <target_id>  (278) 
1

>  <reference_id>  (278) 
68

>  <inspiration_ids>  (278) 
[99, 68]

>  <energy_score>  (278) 
55.372594210555974

>  <distance_score>  (278) 
16.327368331238446

>  <path>  (278) 
/opt/xchem-fragalysis-2/maxwin/BulkDock/SCRATCH/511025/C46835-P68/C46835-P68.minimised.mol

>  <scratch_subdir>  (278) 
/opt/xchem-fragalysis-2/maxwin/BulkDock/SCRATCH/511025/C46835-P68

>  <fragmenstein_runtime>  (278) 
34.90097737312317

>  <fragmenstein_outcome>  (278) 
too moved

>  <fragmenstein_mode>  (278) 
expansion

>  <fragmenstein_error>  (278) 


$$$$
C46836-P99
     RDKit          3D

 41 44  0  0  0  0  0  0  0  0999 V2000
  -11.3170  -21.8716   20.1781 O   0  0  0  0  0  0  0  0  0  0  0  0
  -12.1895  -21.6599   19.3771 C   0  0  0  0  0  0  0  0  0  0  0  0
  -12.7057  -20.3892   18.8322 N   0  0  0  0  0  0  0  0  0  0  0  0
  -12.2685  -19.0676   19.0193 C   0  0  0  0  0  0  0  0  0  0  0  0
  -11.1300  -18.8004   19.7713 C   0  0  0  0  0  0  0  0  0  0  0  0
  -10.9445  -17.4233   19.7655 C   0  0  0  0  0  0  0  0  0  0  0  0
  -11.8889  -16.8048   19.0756 N   0  0  0  0  0  0  0  0  0  0  0  0
  -12.7066  -17.7880   18.6085 N   0  0  0  0  0  0  0  0  0  0  0  0
  -13.8684  -17.2871   17.8563 C   0  0  0  0  0  0  0  0  0  0  0  0
  -13.5979  -17.0416   16.3682 C   0  0  0  0  0  0  0  0  0  0  0  0
  -13.9492  -15.5862   16.0171 C   0  0  0  0  0  0  0  0  0  0  0  0
  -13.9728  -14.8404   17.3339 C   0  0  0  0  0  0  0  0  0  0  0  0
  -14.4388  -15.9097   18.3247 C   0  0  0  0  0  0  0  0  0  0  0  0
  -12.7930  -22.9709   18.9104 C   0  0  0  0  0  0  0  0  0  0  0  0
  -13.8277  -23.5774   19.6299 C   0  0  0  0  0  0  0  0  0  0  0  0
  -14.1234  -24.9589   19.4711 C   0  0  0  0  0  0  0  0  0  0  0  0
  -13.3994  -25.8017   18.6277 C   0  0  0  0  0  0  0  0  0  0  0  0
  -13.7092  -27.1214   18.5224 N   0  0  0  0  0  0  0  0  0  0  0  0
  -12.9377  -27.8901   17.7209 C   0  0  0  0  0  0  0  0  0  0  0  0
  -11.8828  -27.3977   16.9792 C   0  0  0  0  0  0  0  0  0  0  0  0
  -11.5730  -26.0435   17.0910 C   0  0  0  0  0  0  0  0  0  0  0  0
  -12.3285  -25.2096   17.9282 C   0  0  0  0  0  0  0  0  0  0  0  0
  -12.0273  -23.8218   18.0893 C   0  0  0  0  0  0  0  0  0  0  0  0
  -13.5032  -20.5827   18.2374 H   0  0  0  0  0  0  0  0  0  0  0  0
  -10.5012  -19.5305   20.2624 H   0  0  0  0  0  0  0  0  0  0  0  0
  -10.1633  -16.8410   20.2357 H   0  0  0  0  0  0  0  0  0  0  0  0
  -14.6363  -18.0589   17.9899 H   0  0  0  0  0  0  0  0  0  0  0  0
  -12.5698  -17.2893   16.1353 H   0  0  0  0  0  0  0  0  0  0  0  0
  -14.2296  -17.7187   15.7811 H   0  0  0  0  0  0  0  0  0  0  0  0
  -13.2741  -15.1476   15.2807 H   0  0  0  0  0  0  0  0  0  0  0  0
  -14.9528  -15.5658   15.5733 H   0  0  0  0  0  0  0  0  0  0  0  0
  -14.6604  -13.9891   17.3069 H   0  0  0  0  0  0  0  0  0  0  0  0
  -12.9947  -14.4534   17.6193 H   0  0  0  0  0  0  0  0  0  0  0  0
  -14.1842  -15.6536   19.3580 H   0  0  0  0  0  0  0  0  0  0  0  0
  -15.5348  -15.9651   18.2767 H   0  0  0  0  0  0  0  0  0  0  0  0
  -14.3742  -23.0070   20.3776 H   0  0  0  0  0  0  0  0  0  0  0  0
  -14.9278  -25.3944   20.0601 H   0  0  0  0  0  0  0  0  0  0  0  0
  -13.2171  -28.9373   17.6718 H   0  0  0  0  0  0  0  0  0  0  0  0
  -11.3127  -28.0409   16.3202 H   0  0  0  0  0  0  0  0  0  0  0  0
  -10.7323  -25.6455   16.5291 H   0  0  0  0  0  0  0  0  0  0  0  0
  -11.1365  -23.4169   17.6102 H   0  0  0  0  0  0  0  0  0  0  0  0
  1  2  2  0
  2  3  1  0
  3  4  1  0
  4  5  2  0
  5  6  1  0
  6  7  2  0
  7  8  1  0
  8  9  1  0
  9 10  1  0
 10 11  1  0
 11 12  1  0
 12 13  1  0
  2 14  1  0
 14 15  2  0
 15 16  1  0
 16 17  2  0
 17 18  1  0
 18 19  2  0
 19 20  1  0
 20 21  2  0
 21 22  1  0
 22 23  2  0
  8  4  1  0
 13  9  1  0
 23 14  1  0
 22 17  1  0
  3 24  1  0
  5 25  1  0
  6 26  1  0
  9 27  1  0
 10 28  1  0
 10 29  1  0
 11 30  1  0
 11 31  1  0
 12 32  1  0
 12 33  1  0
 13 34  1  0
 13 35  1  0
 15 36  1  0
 16 37  1  0
 19 38  1  0
 20 39  1  0
 21 40  1  0
 23 41  1  0
M  END
>  <Energy>  (279) 
101.60110648720337

>  <compound_id>  (279) 
46836

>  <target_id>  (279) 
1

>  <reference_id>  (279) 
99

>  <inspiration_ids>  (279) 
[99, 68]

>  <energy_score>  (279) 
-6.678123435144812

>  <distance_score>  (279) 
15.805767721577986

>  <path>  (279) 
/opt/xchem-fragalysis-2/maxwin/BulkDock/SCRATCH/511025/C46836-P99/C46836-P99.minimised.mol

>  <scratch_subdir>  (279) 
/opt/xchem-fragalysis-2/maxwin/BulkDock/SCRATCH/511025/C46836-P99

>  <fragmenstein_runtime>  (279) 
58.43511128425598

>  <fragmenstein_outcome>  (279) 
too moved

>  <fragmenstein_mode>  (279) 
expansion

>  <fragmenstein_error>  (279) 


$$$$
C46836-P68
     RDKit          3D

 41 44  0  0  0  0  0  0  0  0999 V2000
  -12.3274  -19.2424   17.7436 O   0  0  0  0  0  0  0  0  0  0  0  0
  -13.2143  -20.0044   17.4860 C   0  0  0  0  0  0  0  0  0  0  0  0
  -14.5436  -19.7657   16.9640 N   0  0  0  0  0  0  0  0  0  0  0  0
  -15.2290  -18.5682   16.6894 C   0  0  0  0  0  0  0  0  0  0  0  0
  -16.5706  -18.7108   16.3315 C   0  0  0  0  0  0  0  0  0  0  0  0
  -17.1373  -17.4441   16.3146 C   0  0  0  0  0  0  0  0  0  0  0  0
  -16.2447  -16.5128   16.5968 N   0  0  0  0  0  0  0  0  0  0  0  0
  -15.0405  -17.1658   16.6802 N   0  0  0  0  0  0  0  0  0  0  0  0
  -13.8949  -16.2278   16.5828 C   0  0  0  0  0  0  0  0  0  0  0  0
  -13.9866  -15.2879   15.3243 C   0  0  0  0  0  0  0  0  0  0  0  0
  -14.4399  -13.9168   15.8206 C   0  0  0  0  0  0  0  0  0  0  0  0
  -13.7482  -13.7841   17.1551 C   0  0  0  0  0  0  0  0  0  0  0  0
  -13.8663  -15.1957   17.7545 C   0  0  0  0  0  0  0  0  0  0  0  0
  -13.0148  -21.5450   17.7953 C   0  0  0  0  0  0  0  0  0  0  0  0
  -14.0141  -22.3051   18.4288 C   0  0  0  0  0  0  0  0  0  0  0  0
  -13.8958  -23.7093   18.6045 C   0  0  0  0  0  0  0  0  0  0  0  0
  -12.7992  -24.4301   18.1565 C   0  0  0  0  0  0  0  0  0  0  0  0
  -12.8148  -25.7785   18.2166 N   0  0  0  0  0  0  0  0  0  0  0  0
  -11.7366  -26.4429   17.7532 C   0  0  0  0  0  0  0  0  0  0  0  0
  -10.6200  -25.8168   17.2343 C   0  0  0  0  0  0  0  0  0  0  0  0
  -10.6262  -24.4206   17.1579 C   0  0  0  0  0  0  0  0  0  0  0  0
  -11.7395  -23.6845   17.5999 C   0  0  0  0  0  0  0  0  0  0  0  0
  -11.8495  -22.2545   17.4453 C   0  0  0  0  0  0  0  0  0  0  0  0
  -14.9963  -20.6553   16.7917 H   0  0  0  0  0  0  0  0  0  0  0  0
  -17.0948  -19.6441   16.1825 H   0  0  0  0  0  0  0  0  0  0  0  0
  -18.1641  -17.1563   16.1321 H   0  0  0  0  0  0  0  0  0  0  0  0
  -13.0022  -16.8547   16.5535 H   0  0  0  0  0  0  0  0  0  0  0  0
  -13.0050  -15.1910   14.8571 H   0  0  0  0  0  0  0  0  0  0  0  0
  -14.6801  -15.6615   14.5655 H   0  0  0  0  0  0  0  0  0  0  0  0
  -14.2102  -13.1057   15.1348 H   0  0  0  0  0  0  0  0  0  0  0  0
  -15.5271  -13.9121   15.9631 H   0  0  0  0  0  0  0  0  0  0  0  0
  -14.2270  -13.0359   17.7943 H   0  0  0  0  0  0  0  0  0  0  0  0
  -12.7051  -13.4878   17.0292 H   0  0  0  0  0  0  0  0  0  0  0  0
  -13.0598  -15.4061   18.4630 H   0  0  0  0  0  0  0  0  0  0  0  0
  -14.7885  -15.2495   18.3471 H   0  0  0  0  0  0  0  0  0  0  0  0
  -14.9167  -21.8184   18.7950 H   0  0  0  0  0  0  0  0  0  0  0  0
  -14.7142  -24.2538   19.0719 H   0  0  0  0  0  0  0  0  0  0  0  0
  -11.8140  -27.5223   17.8077 H   0  0  0  0  0  0  0  0  0  0  0  0
   -9.7741  -26.3911   16.8760 H   0  0  0  0  0  0  0  0  0  0  0  0
   -9.7685  -23.9102   16.7273 H   0  0  0  0  0  0  0  0  0  0  0  0
  -11.0311  -21.7041   16.9816 H   0  0  0  0  0  0  0  0  0  0  0  0
  1  2  2  0
  2  3  1  0
  3  4  1  0
  4  5  2  0
  5  6  1  0
  6  7  2  0
  7  8  1  0
  8  9  1  0
  9 10  1  0
 10 11  1  0
 11 12  1  0
 12 13  1  0
  2 14  1  0
 14 15  2  0
 15 16  1  0
 16 17  2  0
 17 18  1  0
 18 19  2  0
 19 20  1  0
 20 21  2  0
 21 22  1  0
 22 23  2  0
  8  4  1  0
 13  9  1  0
 23 14  1  0
 22 17  1  0
  3 24  1  0
  5 25  1  0
  6 26  1  0
  9 27  1  0
 10 28  1  0
 10 29  1  0
 11 30  1  0
 11 31  1  0
 12 32  1  0
 12 33  1  0
 13 34  1  0
 13 35  1  0
 15 36  1  0
 16 37  1  0
 19 38  1  0
 20 39  1  0
 21 40  1  0
 23 41  1  0
M  END
>  <Energy>  (280) 
101.54881409212611

>  <compound_id>  (280) 
46836

>  <target_id>  (280) 
1

>  <reference_id>  (280) 
68

>  <inspiration_ids>  (280) 
[99, 68]

>  <energy_score>  (280) 
-6.730415830220579

>  <distance_score>  (280) 
16.084922826516546

>  <path>  (280) 
/opt/xchem-fragalysis-2/maxwin/BulkDock/SCRATCH/511025/C46836-P68/C46836-P68.minimised.mol

>  <scratch_subdir>  (280) 
/opt/xchem-fragalysis-2/maxwin/BulkDock/SCRATCH/511025/C46836-P68

>  <fragmenstein_runtime>  (280) 
80.14629173278809

>  <fragmenstein_outcome>  (280) 
too moved

>  <fragmenstein_mode>  (280) 
expansion

>  <fragmenstein_error>  (280) 


$$$$
C46837-P99
     RDKit          3D

 45 48  0  0  0  0  0  0  0  0999 V2000
   -2.8661  -23.0259   19.3331 O   0  0  0  0  0  0  0  0  0  0  0  0
   -3.6045  -22.1091   19.5957 C   0  0  0  0  0  0  0  0  0  0  0  0
   -4.8721  -22.4947   20.4920 C   0  0  0  0  0  0  0  0  0  0  0  0
   -5.4489  -23.8327   20.3814 O   0  0  0  0  0  0  0  0  0  0  0  0
   -5.1294  -24.7656   21.3415 C   0  0  0  0  0  0  0  0  0  0  0  0
   -6.0405  -25.0853   22.3455 C   0  0  0  0  0  0  0  0  0  0  0  0
   -5.7865  -26.1531   23.2361 C   0  0  0  0  0  0  0  0  0  0  0  0
   -4.6192  -26.9086   23.1759 C   0  0  0  0  0  0  0  0  0  0  0  0
   -4.3630  -27.8666   24.0943 N   0  0  0  0  0  0  0  0  0  0  0  0
   -3.2090  -28.5644   23.9874 C   0  0  0  0  0  0  0  0  0  0  0  0
   -2.2706  -28.3469   22.9997 C   0  0  0  0  0  0  0  0  0  0  0  0
   -2.5260  -27.3438   22.0692 C   0  0  0  0  0  0  0  0  0  0  0  0
   -3.7140  -26.6006   22.1406 C   0  0  0  0  0  0  0  0  0  0  0  0
   -3.9893  -25.5559   21.2216 C   0  0  0  0  0  0  0  0  0  0  0  0
   -3.4819  -20.6459   19.3026 N   0  0  0  0  0  0  0  0  0  0  0  0
   -2.4327  -19.9128   18.7231 C   0  0  0  0  0  0  0  0  0  0  0  0
   -1.2215  -20.5165   18.4110 C   0  0  0  0  0  0  0  0  0  0  0  0
   -0.3554  -19.5078   17.9976 C   0  0  0  0  0  0  0  0  0  0  0  0
   -0.9417  -18.3196   18.0036 N   0  0  0  0  0  0  0  0  0  0  0  0
   -2.2373  -18.5586   18.3543 N   0  0  0  0  0  0  0  0  0  0  0  0
   -3.1198  -17.3883   18.1464 C   0  0  0  0  0  0  0  0  0  0  0  0
   -2.8429  -16.2074   19.1229 C   0  0  0  0  0  0  0  0  0  0  0  0
   -2.6921  -14.9260   18.2888 C   0  0  0  0  0  0  0  0  0  0  0  0
   -2.1293  -15.4314   16.9817 C   0  0  0  0  0  0  0  0  0  0  0  0
   -2.9274  -16.7108   16.7493 C   0  0  0  0  0  0  0  0  0  0  0  0
   -4.6034  -22.2909   21.5361 H   0  0  0  0  0  0  0  0  0  0  0  0
   -5.6795  -21.8058   20.2204 H   0  0  0  0  0  0  0  0  0  0  0  0
   -6.9738  -24.5335   22.4289 H   0  0  0  0  0  0  0  0  0  0  0  0
   -6.5189  -26.3877   24.0053 H   0  0  0  0  0  0  0  0  0  0  0  0
   -3.0546  -29.3268   24.7448 H   0  0  0  0  0  0  0  0  0  0  0  0
   -1.3592  -28.9317   22.9569 H   0  0  0  0  0  0  0  0  0  0  0  0
   -1.7962  -27.1421   21.2883 H   0  0  0  0  0  0  0  0  0  0  0  0
   -3.2955  -25.3548   20.4069 H   0  0  0  0  0  0  0  0  0  0  0  0
   -4.3294  -20.1751   19.5969 H   0  0  0  0  0  0  0  0  0  0  0  0
   -0.9795  -21.5651   18.5207 H   0  0  0  0  0  0  0  0  0  0  0  0
    0.6833  -19.5864   17.7039 H   0  0  0  0  0  0  0  0  0  0  0  0
   -4.1381  -17.7708   18.2615 H   0  0  0  0  0  0  0  0  0  0  0  0
   -3.6482  -16.1045   19.8574 H   0  0  0  0  0  0  0  0  0  0  0  0
   -1.9224  -16.3803   19.6941 H   0  0  0  0  0  0  0  0  0  0  0  0
   -2.0366  -14.1968   18.7733 H   0  0  0  0  0  0  0  0  0  0  0  0
   -3.6669  -14.4539   18.1331 H   0  0  0  0  0  0  0  0  0  0  0  0
   -2.2536  -14.7158   16.1770 H   0  0  0  0  0  0  0  0  0  0  0  0
   -1.0613  -15.6540   17.0802 H   0  0  0  0  0  0  0  0  0  0  0  0
   -2.4572  -17.3574   16.0039 H   0  0  0  0  0  0  0  0  0  0  0  0
   -3.9052  -16.4197   16.3702 H   0  0  0  0  0  0  0  0  0  0  0  0
  1  2  2  0
  2  3  1  0
  3  4  1  0
  4  5  1  0
  5  6  2  0
  6  7  1  0
  7  8  2  0
  8  9  1  0
  9 10  2  0
 10 11  1  0
 11 12  2  0
 12 13  1  0
 13 14  2  0
  2 15  1  0
 15 16  1  0
 16 17  2  0
 17 18  1  0
 18 19  2  0
 19 20  1  0
 20 21  1  0
 21 22  1  0
 22 23  1  0
 23 24  1  0
 24 25  1  0
 14  5  1  0
 20 16  1  0
 25 21  1  0
 13  8  1  0
  3 26  1  0
  3 27  1  0
  6 28  1  0
  7 29  1  0
 10 30  1  0
 11 31  1  0
 12 32  1  0
 14 33  1  0
 15 34  1  0
 17 35  1  0
 18 36  1  0
 21 37  1  0
 22 38  1  0
 22 39  1  0
 23 40  1  0
 23 41  1  0
 24 42  1  0
 24 43  1  0
 25 44  1  0
 25 45  1  0
M  END
>  <Energy>  (281) 
115.87816101603897

>  <compound_id>  (281) 
46837

>  <target_id>  (281) 
1

>  <reference_id>  (281) 
99

>  <inspiration_ids>  (281) 
[99, 68]

>  <energy_score>  (281) 
8.315252881583888

>  <distance_score>  (281) 
14.53869965076836

>  <path>  (281) 
/opt/xchem-fragalysis-2/maxwin/BulkDock/SCRATCH/511025/C46837-P99/C46837-P99.minimised.mol

>  <scratch_subdir>  (281) 
/opt/xchem-fragalysis-2/maxwin/BulkDock/SCRATCH/511025/C46837-P99

>  <fragmenstein_runtime>  (281) 
60.56754779815674

>  <fragmenstein_outcome>  (281) 
too moved

>  <fragmenstein_mode>  (281) 
expansion

>  <fragmenstein_error>  (281) 


$$$$
C46837-P68
     RDKit          3D

 45 48  0  0  0  0  0  0  0  0999 V2000
  -10.0706  -13.9444   14.2788 O   0  0  0  0  0  0  0  0  0  0  0  0
   -8.9086  -13.7253   14.1726 C   0  0  0  0  0  0  0  0  0  0  0  0
   -7.8349  -15.2067   15.1083 C   0  0  0  0  0  0  0  0  0  0  0  0
   -7.7076  -16.3069   16.6610 O   0  0  0  0  0  0  0  0  0  0  0  0
   -8.0761  -17.3207   17.8551 C   0  0  0  0  0  0  0  0  0  0  0  0
   -7.0245  -18.0396   18.5581 C   0  0  0  0  0  0  0  0  0  0  0  0
   -7.1264  -19.1608   19.4559 C   0  0  0  0  0  0  0  0  0  0  0  0
   -8.3146  -19.5698   19.9728 C   0  0  0  0  0  0  0  0  0  0  0  0
   -8.3569  -20.6631   20.7850 N   0  0  0  0  0  0  0  0  0  0  0  0
   -9.5037  -20.9073   21.4382 C   0  0  0  0  0  0  0  0  0  0  0  0
  -10.5931  -20.0622   21.3389 C   0  0  0  0  0  0  0  0  0  0  0  0
  -10.5187  -18.9449   20.4740 C   0  0  0  0  0  0  0  0  0  0  0  0
   -9.3676  -18.6866   19.6946 C   0  0  0  0  0  0  0  0  0  0  0  0
   -9.2192  -17.5799   18.6678 C   0  0  0  0  0  0  0  0  0  0  0  0
   -8.2468  -12.2488   13.4462 N   0  0  0  0  0  0  0  0  0  0  0  0
   -9.0354  -10.7906   12.8690 C   0  0  0  0  0  0  0  0  0  0  0  0
   -9.5342   -9.9824   13.9335 C   0  0  0  0  0  0  0  0  0  0  0  0
   -8.5742   -9.0341   14.2603 C   0  0  0  0  0  0  0  0  0  0  0  0
   -7.6940   -8.8572   13.3185 N   0  0  0  0  0  0  0  0  0  0  0  0
   -8.5559   -9.2474   11.9810 N   0  0  0  0  0  0  0  0  0  0  0  0
   -7.6373   -8.5381   10.3890 C   0  0  0  0  0  0  0  0  0  0  0  0
   -6.2749   -7.3642   10.0156 C   0  0  0  0  0  0  0  0  0  0  0  0
   -6.9432   -5.6992    9.2199 C   0  0  0  0  0  0  0  0  0  0  0  0
   -7.7331   -6.0114    7.8383 C   0  0  0  0  0  0  0  0  0  0  0  0
   -7.7581   -7.9753    8.5235 C   0  0  0  0  0  0  0  0  0  0  0  0
   -7.0688  -14.6713   15.6245 H   0  0  0  0  0  0  0  0  0  0  0  0
   -7.4634  -15.9518   14.4196 H   0  0  0  0  0  0  0  0  0  0  0  0
   -5.9772  -17.7378   18.5035 H   0  0  0  0  0  0  0  0  0  0  0  0
   -6.2132  -19.6584   19.7758 H   0  0  0  0  0  0  0  0  0  0  0  0
   -9.5178  -21.7933   22.0635 H   0  0  0  0  0  0  0  0  0  0  0  0
  -11.5027  -20.2655   21.8938 H   0  0  0  0  0  0  0  0  0  0  0  0
  -11.3910  -18.3026   20.3707 H   0  0  0  0  0  0  0  0  0  0  0  0
  -10.0810  -16.9254   18.6393 H   0  0  0  0  0  0  0  0  0  0  0  0
   -7.2439  -12.3287   13.3898 H   0  0  0  0  0  0  0  0  0  0  0  0
  -10.1516  -10.2408   14.7630 H   0  0  0  0  0  0  0  0  0  0  0  0
   -8.4487   -8.3929   15.1135 H   0  0  0  0  0  0  0  0  0  0  0  0
   -7.0543   -8.0143   11.1699 H   0  0  0  0  0  0  0  0  0  0  0  0
   -5.6843   -8.1058    9.4613 H   0  0  0  0  0  0  0  0  0  0  0  0
   -5.5846   -7.0983   10.8575 H   0  0  0  0  0  0  0  0  0  0  0  0
   -7.5425   -5.0174    9.8410 H   0  0  0  0  0  0  0  0  0  0  0  0
   -6.2537   -5.0296    8.7939 H   0  0  0  0  0  0  0  0  0  0  0  0
   -8.7349   -5.5217    7.7271 H   0  0  0  0  0  0  0  0  0  0  0  0
   -7.2177   -5.7358    6.8906 H   0  0  0  0  0  0  0  0  0  0  0  0
   -6.8820   -8.4544    8.0738 H   0  0  0  0  0  0  0  0  0  0  0  0
   -8.7249   -8.3983    8.1926 H   0  0  0  0  0  0  0  0  0  0  0  0
  1  2  2  0
  2  3  1  0
  3  4  1  0
  4  5  1  0
  5  6  2  0
  6  7  1  0
  7  8  2  0
  8  9  1  0
  9 10  2  0
 10 11  1  0
 11 12  2  0
 12 13  1  0
 13 14  2  0
  2 15  1  0
 15 16  1  0
 16 17  2  0
 17 18  1  0
 18 19  2  0
 19 20  1  0
 20 21  1  0
 21 22  1  0
 22 23  1  0
 23 24  1  0
 24 25  1  0
 14  5  1  0
 20 16  1  0
 25 21  1  0
 13  8  1  0
  3 26  1  0
  3 27  1  0
  6 28  1  0
  7 29  1  0
 10 30  1  0
 11 31  1  0
 12 32  1  0
 14 33  1  0
 15 34  1  0
 17 35  1  0
 18 36  1  0
 21 37  1  0
 22 38  1  0
 22 39  1  0
 23 40  1  0
 23 41  1  0
 24 42  1  0
 24 43  1  0
 25 44  1  0
 25 45  1  0
M  END
>  <Energy>  (282) 
1041.2783880679867

>  <compound_id>  (282) 
46837

>  <target_id>  (282) 
1

>  <reference_id>  (282) 
68

>  <inspiration_ids>  (282) 
[99, 68]

>  <energy_score>  (282) 
933.7154799335267

>  <distance_score>  (282) 
14.575258843607378

>  <path>  (282) 
/opt/xchem-fragalysis-2/maxwin/BulkDock/SCRATCH/511025/C46837-P68/C46837-P68.minimised.mol

>  <scratch_subdir>  (282) 
/opt/xchem-fragalysis-2/maxwin/BulkDock/SCRATCH/511025/C46837-P68

>  <fragmenstein_runtime>  (282) 
36.097586154937744

>  <fragmenstein_outcome>  (282) 
too moved

>  <fragmenstein_mode>  (282) 
expansion

>  <fragmenstein_error>  (282) 


$$$$
C46838-P99
     RDKit          3D

 42 45  0  0  0  0  0  0  0  0999 V2000
  -11.9126  -25.5177   14.0884 O   0  0  0  0  0  0  0  0  0  0  0  0
  -10.7453  -25.5413   14.3692 C   0  0  0  0  0  0  0  0  0  0  0  0
   -9.7418  -24.3980   13.9892 C   0  0  0  0  0  0  0  0  0  0  0  0
   -9.9829  -23.0175   13.3641 C   0  0  0  0  0  0  0  0  0  0  0  0
   -9.9716  -22.8540   11.9911 C   0  0  0  0  0  0  0  0  0  0  0  0
   -9.3762  -21.6212   11.8993 C   0  0  0  0  0  0  0  0  0  0  0  0
   -9.9005  -20.8186   12.9135 N   0  0  0  0  0  0  0  0  0  0  0  0
   -9.7114  -19.1396   12.7286 C   0  0  0  0  0  0  0  0  0  0  0  0
   -8.7392  -17.5002   12.9961 C   0  0  0  0  0  0  0  0  0  0  0  0
   -9.5796  -16.2265   13.1432 C   0  0  0  0  0  0  0  0  0  0  0  0
  -10.7586  -16.8566   13.3126 C   0  0  0  0  0  0  0  0  0  0  0  0
  -10.7052  -18.3498   13.7396 C   0  0  0  0  0  0  0  0  0  0  0  0
   -9.7301  -21.7890   13.9551 N   0  0  0  0  0  0  0  0  0  0  0  0
   -9.9597  -26.5209   15.1887 N   0  0  0  0  0  0  0  0  0  0  0  0
  -10.3684  -27.6223   15.9304 C   0  0  0  0  0  0  0  0  0  0  0  0
   -9.2549  -28.3671   16.5498 C   0  0  0  0  0  0  0  0  0  0  0  0
   -9.4630  -29.1922   17.5895 C   0  0  0  0  0  0  0  0  0  0  0  0
  -10.7568  -29.4403   18.0254 N   0  0  0  0  0  0  0  0  0  0  0  0
  -11.1486  -30.1398   19.1195 N   0  0  0  0  0  0  0  0  0  0  0  0
  -12.4717  -30.2298   19.0105 C   0  0  0  0  0  0  0  0  0  0  0  0
  -12.9724  -29.4636   17.9456 C   0  0  0  0  0  0  0  0  0  0  0  0
  -11.8606  -28.9074   17.3499 C   0  0  0  0  0  0  0  0  0  0  0  0
  -11.6314  -27.9522   16.2866 C   0  0  0  0  0  0  0  0  0  0  0  0
   -9.2136  -24.1462   14.9020 H   0  0  0  0  0  0  0  0  0  0  0  0
   -9.0731  -24.9171   13.2913 H   0  0  0  0  0  0  0  0  0  0  0  0
  -10.0116  -23.6512   11.2662 H   0  0  0  0  0  0  0  0  0  0  0  0
   -8.8118  -21.0460   11.1940 H   0  0  0  0  0  0  0  0  0  0  0  0
   -9.3969  -19.1337   11.6800 H   0  0  0  0  0  0  0  0  0  0  0  0
   -7.8408  -17.6250   12.4595 H   0  0  0  0  0  0  0  0  0  0  0  0
   -8.2259  -17.3684   13.9603 H   0  0  0  0  0  0  0  0  0  0  0  0
   -9.4337  -15.4380   13.9018 H   0  0  0  0  0  0  0  0  0  0  0  0
   -9.8680  -15.4745   12.3664 H   0  0  0  0  0  0  0  0  0  0  0  0
  -10.9392  -16.7283   12.2457 H   0  0  0  0  0  0  0  0  0  0  0  0
  -11.3760  -16.0872   13.8439 H   0  0  0  0  0  0  0  0  0  0  0  0
  -10.4459  -18.5343   14.7886 H   0  0  0  0  0  0  0  0  0  0  0  0
  -11.6520  -18.7860   13.7428 H   0  0  0  0  0  0  0  0  0  0  0  0
   -8.9775  -26.2769   15.1497 H   0  0  0  0  0  0  0  0  0  0  0  0
   -8.2430  -28.1873   16.2007 H   0  0  0  0  0  0  0  0  0  0  0  0
   -8.6640  -29.6788   18.1259 H   0  0  0  0  0  0  0  0  0  0  0  0
  -13.0187  -30.8261   19.7289 H   0  0  0  0  0  0  0  0  0  0  0  0
  -14.0040  -29.3142   17.6604 H   0  0  0  0  0  0  0  0  0  0  0  0
  -12.4830  -27.4109   15.8840 H   0  0  0  0  0  0  0  0  0  0  0  0
  1  2  2  0
  2  3  1  0
  3  4  1  0
  4  5  1  0
  5  6  2  0
  6  7  1  0
  7  8  1  0
  8  9  1  0
  9 10  1  0
 10 11  1  0
 11 12  1  0
  7 13  1  0
  2 14  1  0
 14 15  1  0
 15 16  1  0
 16 17  2  0
 17 18  1  0
 18 19  1  0
 19 20  2  0
 20 21  1  0
 21 22  2  0
 22 23  1  0
 13  4  2  0
 23 15  2  0
 12  8  1  0
 22 18  1  0
  3 24  1  0
  3 25  1  0
  5 26  1  0
  6 27  1  0
  8 28  1  0
  9 29  1  0
  9 30  1  0
 10 31  1  0
 10 32  1  0
 11 33  1  0
 11 34  1  0
 12 35  1  0
 12 36  1  0
 14 37  1  0
 16 38  1  0
 17 39  1  0
 20 40  1  0
 21 41  1  0
 23 42  1  0
M  END
>  <Energy>  (283) 
297.34072818907532

>  <compound_id>  (283) 
46838

>  <target_id>  (283) 
1

>  <reference_id>  (283) 
99

>  <inspiration_ids>  (283) 
[99, 68]

>  <energy_score>  (283) 
200.2397660851039

>  <distance_score>  (283) 
14.283085404920197

>  <path>  (283) 
/opt/xchem-fragalysis-2/maxwin/BulkDock/SCRATCH/511025/C46838-P99/C46838-P99.minimised.mol

>  <scratch_subdir>  (283) 
/opt/xchem-fragalysis-2/maxwin/BulkDock/SCRATCH/511025/C46838-P99

>  <fragmenstein_runtime>  (283) 
42.521888732910156

>  <fragmenstein_outcome>  (283) 
too moved

>  <fragmenstein_mode>  (283) 
expansion

>  <fragmenstein_error>  (283) 


$$$$
C46838-P68
     RDKit          3D

 42 45  0  0  0  0  0  0  0  0999 V2000
   -3.9118  -20.4216   11.6403 O   0  0  0  0  0  0  0  0  0  0  0  0
   -5.0855  -20.6589   11.7754 C   0  0  0  0  0  0  0  0  0  0  0  0
   -6.3120  -19.3919   11.8788 C   0  0  0  0  0  0  0  0  0  0  0  0
   -6.1927  -17.6486   12.3633 C   0  0  0  0  0  0  0  0  0  0  0  0
   -6.4847  -17.2135   13.6207 C   0  0  0  0  0  0  0  0  0  0  0  0
   -5.5097  -16.2937   13.8198 C   0  0  0  0  0  0  0  0  0  0  0  0
   -5.4289  -14.8973   12.7502 N   0  0  0  0  0  0  0  0  0  0  0  0
   -6.2174  -13.1089   12.5775 C   0  0  0  0  0  0  0  0  0  0  0  0
   -7.8718  -12.6541   12.2955 C   0  0  0  0  0  0  0  0  0  0  0  0
   -8.1460  -11.2100   12.7409 C   0  0  0  0  0  0  0  0  0  0  0  0
   -6.9062  -10.3795   12.5884 C   0  0  0  0  0  0  0  0  0  0  0  0
   -5.6735  -11.3081   12.6340 C   0  0  0  0  0  0  0  0  0  0  0  0
   -5.8166  -16.1240   11.6369 N   0  0  0  0  0  0  0  0  0  0  0  0
   -5.8351  -22.0030   11.7843 N   0  0  0  0  0  0  0  0  0  0  0  0
   -5.3625  -23.3626   11.5370 C   0  0  0  0  0  0  0  0  0  0  0  0
   -3.9371  -23.7107   11.4274 C   0  0  0  0  0  0  0  0  0  0  0  0
   -3.5108  -24.9662   11.7049 C   0  0  0  0  0  0  0  0  0  0  0  0
   -4.4135  -25.9946   11.9736 N   0  0  0  0  0  0  0  0  0  0  0  0
   -4.1464  -27.2846   12.3210 N   0  0  0  0  0  0  0  0  0  0  0  0
   -5.3416  -27.8689   12.4334 C   0  0  0  0  0  0  0  0  0  0  0  0
   -6.3967  -26.9943   12.1294 C   0  0  0  0  0  0  0  0  0  0  0  0
   -5.7848  -25.7779   11.8860 C   0  0  0  0  0  0  0  0  0  0  0  0
   -6.2319  -24.4187   11.6744 C   0  0  0  0  0  0  0  0  0  0  0  0
   -7.1317  -19.8670   12.3949 H   0  0  0  0  0  0  0  0  0  0  0  0
   -6.7240  -19.3808   10.8655 H   0  0  0  0  0  0  0  0  0  0  0  0
   -7.5338  -16.9933   13.8518 H   0  0  0  0  0  0  0  0  0  0  0  0
   -4.4988  -16.4291   14.2126 H   0  0  0  0  0  0  0  0  0  0  0  0
   -6.6150  -13.3847   13.5184 H   0  0  0  0  0  0  0  0  0  0  0  0
   -8.1343  -12.7164   11.2477 H   0  0  0  0  0  0  0  0  0  0  0  0
   -8.5829  -13.2510   12.8738 H   0  0  0  0  0  0  0  0  0  0  0  0
   -8.9738  -10.7851   12.1609 H   0  0  0  0  0  0  0  0  0  0  0  0
   -8.4932  -11.2013   13.7789 H   0  0  0  0  0  0  0  0  0  0  0  0
   -6.9352   -9.8363   11.6361 H   0  0  0  0  0  0  0  0  0  0  0  0
   -6.8482   -9.6141   13.3704 H   0  0  0  0  0  0  0  0  0  0  0  0
   -5.0407  -10.9596   13.4576 H   0  0  0  0  0  0  0  0  0  0  0  0
   -5.1130  -10.9539   11.7770 H   0  0  0  0  0  0  0  0  0  0  0  0
   -6.8048  -21.8429   12.0076 H   0  0  0  0  0  0  0  0  0  0  0  0
   -3.2302  -22.9062   11.2503 H   0  0  0  0  0  0  0  0  0  0  0  0
   -2.4637  -25.2334   11.7352 H   0  0  0  0  0  0  0  0  0  0  0  0
   -5.3887  -28.9130   12.7144 H   0  0  0  0  0  0  0  0  0  0  0  0
   -7.4568  -27.2008   12.1429 H   0  0  0  0  0  0  0  0  0  0  0  0
   -7.2928  -24.2592   11.8004 H   0  0  0  0  0  0  0  0  0  0  0  0
  1  2  2  0
  2  3  1  0
  3  4  1  0
  4  5  1  0
  5  6  2  0
  6  7  1  0
  7  8  1  0
  8  9  1  0
  9 10  1  0
 10 11  1  0
 11 12  1  0
  7 13  1  0
  2 14  1  0
 14 15  1  0
 15 16  1  0
 16 17  2  0
 17 18  1  0
 18 19  1  0
 19 20  2  0
 20 21  1  0
 21 22  2  0
 22 23  1  0
 13  4  2  0
 23 15  2  0
 12  8  1  0
 22 18  1  0
  3 24  1  0
  3 25  1  0
  5 26  1  0
  6 27  1  0
  8 28  1  0
  9 29  1  0
  9 30  1  0
 10 31  1  0
 10 32  1  0
 11 33  1  0
 11 34  1  0
 12 35  1  0
 12 36  1  0
 14 37  1  0
 16 38  1  0
 17 39  1  0
 20 40  1  0
 21 41  1  0
 23 42  1  0
M  END
>  <Energy>  (284) 
525.02180175886201

>  <compound_id>  (284) 
46838

>  <target_id>  (284) 
1

>  <reference_id>  (284) 
68

>  <inspiration_ids>  (284) 
[99, 68]

>  <energy_score>  (284) 
427.9208396548818

>  <distance_score>  (284) 
14.62285629852452

>  <path>  (284) 
/opt/xchem-fragalysis-2/maxwin/BulkDock/SCRATCH/511025/C46838-P68/C46838-P68.minimised.mol

>  <scratch_subdir>  (284) 
/opt/xchem-fragalysis-2/maxwin/BulkDock/SCRATCH/511025/C46838-P68

>  <fragmenstein_runtime>  (284) 
49.877562522888184

>  <fragmenstein_outcome>  (284) 
too moved

>  <fragmenstein_mode>  (284) 
expansion

>  <fragmenstein_error>  (284) 


$$$$
C46839-P99
     RDKit          3D

 45 48  0  0  0  0  0  0  0  0999 V2000
  -11.7420  -27.6650   17.6196 C   0  0  0  0  0  0  0  0  0  0  0  0
  -10.7993  -28.5276   16.9024 N   0  0  0  0  0  0  0  0  0  0  0  0
  -10.2938  -27.9793   15.5701 C   0  0  0  0  0  0  0  0  0  0  0  0
   -9.7640  -26.4875   15.3225 C   0  0  0  0  0  0  0  0  0  0  0  0
   -9.3974  -25.5067   16.2810 C   0  0  0  0  0  0  0  0  0  0  0  0
   -8.9830  -24.3946   15.5721 C   0  0  0  0  0  0  0  0  0  0  0  0
   -9.0467  -24.7099   14.2383 N   0  0  0  0  0  0  0  0  0  0  0  0
   -8.5440  -23.9076   13.0968 C   0  0  0  0  0  0  0  0  0  0  0  0
   -7.2022  -23.1604   13.2886 C   0  0  0  0  0  0  0  0  0  0  0  0
   -7.0590  -22.2712   12.0482 C   0  0  0  0  0  0  0  0  0  0  0  0
   -8.4843  -21.9771   11.6001 C   0  0  0  0  0  0  0  0  0  0  0  0
   -9.4133  -22.7472   12.5666 C   0  0  0  0  0  0  0  0  0  0  0  0
   -9.5427  -25.9913   14.0691 N   0  0  0  0  0  0  0  0  0  0  0  0
  -11.0933  -29.9183   17.0373 C   0  0  0  0  0  0  0  0  0  0  0  0
  -10.8166  -30.8740   16.0588 C   0  0  0  0  0  0  0  0  0  0  0  0
  -11.1367  -32.2452   16.2323 C   0  0  0  0  0  0  0  0  0  0  0  0
  -11.6903  -32.7561   17.4016 C   0  0  0  0  0  0  0  0  0  0  0  0
  -11.9068  -34.0864   17.5421 N   0  0  0  0  0  0  0  0  0  0  0  0
  -12.3122  -34.5418   18.7476 C   0  0  0  0  0  0  0  0  0  0  0  0
  -12.5676  -33.7229   19.8270 C   0  0  0  0  0  0  0  0  0  0  0  0
  -12.4040  -32.3522   19.6526 C   0  0  0  0  0  0  0  0  0  0  0  0
  -11.9456  -31.8372   18.4254 C   0  0  0  0  0  0  0  0  0  0  0  0
  -11.6737  -30.4542   18.2107 C   0  0  0  0  0  0  0  0  0  0  0  0
  -12.7809  -27.9850   17.4740 H   0  0  0  0  0  0  0  0  0  0  0  0
  -11.6943  -26.6291   17.2741 H   0  0  0  0  0  0  0  0  0  0  0  0
  -11.5067  -27.6428   18.6869 H   0  0  0  0  0  0  0  0  0  0  0  0
   -9.4363  -28.5960   15.2699 H   0  0  0  0  0  0  0  0  0  0  0  0
  -11.0922  -28.1310   14.8308 H   0  0  0  0  0  0  0  0  0  0  0  0
   -9.4307  -25.6030   17.3571 H   0  0  0  0  0  0  0  0  0  0  0  0
   -8.6272  -23.4315   15.9073 H   0  0  0  0  0  0  0  0  0  0  0  0
   -8.4094  -24.6385   12.2863 H   0  0  0  0  0  0  0  0  0  0  0  0
   -7.2403  -22.5456   14.1905 H   0  0  0  0  0  0  0  0  0  0  0  0
   -6.3600  -23.8517   13.3932 H   0  0  0  0  0  0  0  0  0  0  0  0
   -6.5316  -22.8190   11.2583 H   0  0  0  0  0  0  0  0  0  0  0  0
   -6.4875  -21.3635   12.2450 H   0  0  0  0  0  0  0  0  0  0  0  0
   -8.6679  -20.9042   11.5931 H   0  0  0  0  0  0  0  0  0  0  0  0
   -8.6320  -22.3385   10.5757 H   0  0  0  0  0  0  0  0  0  0  0  0
  -10.3068  -23.1191   12.0559 H   0  0  0  0  0  0  0  0  0  0  0  0
   -9.7483  -22.1083   13.3906 H   0  0  0  0  0  0  0  0  0  0  0  0
  -10.3612  -30.5957   15.1134 H   0  0  0  0  0  0  0  0  0  0  0  0
  -10.9051  -32.9405   15.4284 H   0  0  0  0  0  0  0  0  0  0  0  0
  -12.4322  -35.6184   18.8171 H   0  0  0  0  0  0  0  0  0  0  0  0
  -12.8879  -34.1352   20.7758 H   0  0  0  0  0  0  0  0  0  0  0  0
  -12.5740  -31.6940   20.4962 H   0  0  0  0  0  0  0  0  0  0  0  0
  -11.9172  -29.7834   19.0143 H   0  0  0  0  0  0  0  0  0  0  0  0
  1  2  1  0
  2  3  1  0
  3  4  1  0
  4  5  1  0
  5  6  2  0
  6  7  1  0
  7  8  1  0
  8  9  1  0
  9 10  1  0
 10 11  1  0
 11 12  1  0
  7 13  1  0
  2 14  1  0
 14 15  2  0
 15 16  1  0
 16 17  2  0
 17 18  1  0
 18 19  2  0
 19 20  1  0
 20 21  2  0
 21 22  1  0
 22 23  2  0
 13  4  2  0
 23 14  1  0
 12  8  1  0
 22 17  1  0
  1 24  1  0
  1 25  1  0
  1 26  1  0
  3 27  1  0
  3 28  1  0
  5 29  1  0
  6 30  1  0
  8 31  1  0
  9 32  1  0
  9 33  1  0
 10 34  1  0
 10 35  1  0
 11 36  1  0
 11 37  1  0
 12 38  1  0
 12 39  1  0
 15 40  1  0
 16 41  1  0
 19 42  1  0
 20 43  1  0
 21 44  1  0
 23 45  1  0
M  END
>  <Energy>  (285) 
87.197431668057433

>  <compound_id>  (285) 
46839

>  <target_id>  (285) 
1

>  <reference_id>  (285) 
99

>  <inspiration_ids>  (285) 
[99, 68]

>  <energy_score>  (285) 
-8.467145343697098

>  <distance_score>  (285) 
15.081548820005658

>  <path>  (285) 
/opt/xchem-fragalysis-2/maxwin/BulkDock/SCRATCH/511025/C46839-P99/C46839-P99.minimised.mol

>  <scratch_subdir>  (285) 
/opt/xchem-fragalysis-2/maxwin/BulkDock/SCRATCH/511025/C46839-P99

>  <fragmenstein_runtime>  (285) 
44.274802684783936

>  <fragmenstein_outcome>  (285) 
too moved

>  <fragmenstein_mode>  (285) 
expansion

>  <fragmenstein_error>  (285) 


$$$$
C46839-P68
     RDKit          3D

 45 48  0  0  0  0  0  0  0  0999 V2000
  -12.3678  -18.4319   15.6137 C   0  0  0  0  0  0  0  0  0  0  0  0
  -11.1662  -18.4449   14.5516 N   0  0  0  0  0  0  0  0  0  0  0  0
  -10.4919  -16.8634   13.5113 C   0  0  0  0  0  0  0  0  0  0  0  0
  -10.0569  -14.8829   13.3846 C   0  0  0  0  0  0  0  0  0  0  0  0
   -9.2319  -14.1250   14.3009 C   0  0  0  0  0  0  0  0  0  0  0  0
   -8.8408  -12.8311   13.9259 C   0  0  0  0  0  0  0  0  0  0  0  0
   -8.1361  -12.9141   12.5220 N   0  0  0  0  0  0  0  0  0  0  0  0
   -6.6174  -11.9067   11.6677 C   0  0  0  0  0  0  0  0  0  0  0  0
   -5.4436  -10.1623   10.4932 C   0  0  0  0  0  0  0  0  0  0  0  0
   -6.7868   -8.5563   10.4505 C   0  0  0  0  0  0  0  0  0  0  0  0
   -8.4466   -9.2265   11.5647 C   0  0  0  0  0  0  0  0  0  0  0  0
   -8.5767  -11.1109   12.3071 C   0  0  0  0  0  0  0  0  0  0  0  0
   -9.7100  -13.7616   12.2692 N   0  0  0  0  0  0  0  0  0  0  0  0
  -10.8491  -19.9179   15.0911 C   0  0  0  0  0  0  0  0  0  0  0  0
  -10.6684  -20.2011   16.5024 C   0  0  0  0  0  0  0  0  0  0  0  0
  -10.5437  -21.4986   17.1073 C   0  0  0  0  0  0  0  0  0  0  0  0
  -10.5672  -22.6657   16.3761 C   0  0  0  0  0  0  0  0  0  0  0  0
  -10.3815  -23.8685   16.9928 N   0  0  0  0  0  0  0  0  0  0  0  0
  -10.3870  -24.9797   16.2296 C   0  0  0  0  0  0  0  0  0  0  0  0
  -10.5806  -24.9404   14.8638 C   0  0  0  0  0  0  0  0  0  0  0  0
  -10.7765  -23.6893   14.2503 C   0  0  0  0  0  0  0  0  0  0  0  0
  -10.7677  -22.4911   14.9933 C   0  0  0  0  0  0  0  0  0  0  0  0
  -10.9333  -21.1422   14.3923 C   0  0  0  0  0  0  0  0  0  0  0  0
  -13.0200  -17.5753   15.6506 H   0  0  0  0  0  0  0  0  0  0  0  0
  -13.0513  -19.2781   15.4367 H   0  0  0  0  0  0  0  0  0  0  0  0
  -12.0357  -18.4191   16.6529 H   0  0  0  0  0  0  0  0  0  0  0  0
  -11.2752  -16.2601   13.9840 H   0  0  0  0  0  0  0  0  0  0  0  0
   -9.4364  -17.0337   13.6757 H   0  0  0  0  0  0  0  0  0  0  0  0
   -8.5356  -14.6886   14.8812 H   0  0  0  0  0  0  0  0  0  0  0  0
   -8.6416  -11.9824   14.5519 H   0  0  0  0  0  0  0  0  0  0  0  0
   -6.0518  -12.1430   12.5644 H   0  0  0  0  0  0  0  0  0  0  0  0
   -5.1493   -9.8844    9.3679 H   0  0  0  0  0  0  0  0  0  0  0  0
   -4.5011   -9.7066   11.0196 H   0  0  0  0  0  0  0  0  0  0  0  0
   -7.0457   -8.2425    9.4224 H   0  0  0  0  0  0  0  0  0  0  0  0
   -6.1541   -7.8170   10.9836 H   0  0  0  0  0  0  0  0  0  0  0  0
   -8.3471   -8.8906   12.6175 H   0  0  0  0  0  0  0  0  0  0  0  0
   -9.3800   -9.0880   11.0627 H   0  0  0  0  0  0  0  0  0  0  0  0
   -8.5436  -10.7009   13.3551 H   0  0  0  0  0  0  0  0  0  0  0  0
   -9.6104  -11.5303   12.1225 H   0  0  0  0  0  0  0  0  0  0  0  0
  -10.5364  -19.3769   17.2014 H   0  0  0  0  0  0  0  0  0  0  0  0
  -10.3845  -21.5566   18.1818 H   0  0  0  0  0  0  0  0  0  0  0  0
  -10.2325  -25.9150   16.7573 H   0  0  0  0  0  0  0  0  0  0  0  0
  -10.5833  -25.8512   14.2758 H   0  0  0  0  0  0  0  0  0  0  0  0
  -10.9268  -23.6482   13.1734 H   0  0  0  0  0  0  0  0  0  0  0  0
  -11.0758  -21.1177   13.3314 H   0  0  0  0  0  0  0  0  0  0  0  0
  1  2  1  0
  2  3  1  0
  3  4  1  0
  4  5  1  0
  5  6  2  0
  6  7  1  0
  7  8  1  0
  8  9  1  0
  9 10  1  0
 10 11  1  0
 11 12  1  0
  7 13  1  0
  2 14  1  0
 14 15  2  0
 15 16  1  0
 16 17  2  0
 17 18  1  0
 18 19  2  0
 19 20  1  0
 20 21  2  0
 21 22  1  0
 22 23  2  0
 13  4  2  0
 23 14  1  0
 12  8  1  0
 22 17  1  0
  1 24  1  0
  1 25  1  0
  1 26  1  0
  3 27  1  0
  3 28  1  0
  5 29  1  0
  6 30  1  0
  8 31  1  0
  9 32  1  0
  9 33  1  0
 10 34  1  0
 10 35  1  0
 11 36  1  0
 11 37  1  0
 12 38  1  0
 12 39  1  0
 15 40  1  0
 16 41  1  0
 19 42  1  0
 20 43  1  0
 21 44  1  0
 23 45  1  0
M  END
>  <Energy>  (286) 
1449.98490297276

>  <compound_id>  (286) 
46839

>  <target_id>  (286) 
1

>  <reference_id>  (286) 
68

>  <inspiration_ids>  (286) 
[99, 68]

>  <energy_score>  (286) 
1354.320325961

>  <distance_score>  (286) 
14.514688960473435

>  <path>  (286) 
/opt/xchem-fragalysis-2/maxwin/BulkDock/SCRATCH/511025/C46839-P68/C46839-P68.minimised.mol

>  <scratch_subdir>  (286) 
/opt/xchem-fragalysis-2/maxwin/BulkDock/SCRATCH/511025/C46839-P68

>  <fragmenstein_runtime>  (286) 
39.19194149971008

>  <fragmenstein_outcome>  (286) 
too moved

>  <fragmenstein_mode>  (286) 
expansion

>  <fragmenstein_error>  (286) 


$$$$
C46840-P99
     RDKit          3D

 44 47  0  0  0  0  0  0  0  0999 V2000
   -4.5565  -21.3694   12.1127 C   0  0  0  0  0  0  0  0  0  0  0  0
   -4.8971  -20.0817   12.1178 N   0  0  0  0  0  0  0  0  0  0  0  0
   -6.2567  -19.3027   11.8176 C   0  0  0  0  0  0  0  0  0  0  0  0
   -7.3433  -19.6908   11.6242 O   0  0  0  0  0  0  0  0  0  0  0  0
   -6.1610  -17.4856   11.9028 C   0  0  0  0  0  0  0  0  0  0  0  0
   -5.7104  -16.3029   13.1006 C   0  0  0  0  0  0  0  0  0  0  0  0
   -5.3056  -15.0869   12.4163 C   0  0  0  0  0  0  0  0  0  0  0  0
   -6.1937  -14.5441   10.9034 N   0  0  0  0  0  0  0  0  0  0  0  0
   -7.6216  -13.1680   11.4669 C   0  0  0  0  0  0  0  0  0  0  0  0
   -8.1843  -12.7316    9.6649 C   0  0  0  0  0  0  0  0  0  0  0  0
   -7.9365  -10.6999    8.5798 C   0  0  0  0  0  0  0  0  0  0  0  0
   -8.2286   -9.4837   10.6478 C   0  0  0  0  0  0  0  0  0  0  0  0
   -8.4927  -11.3621   11.9722 C   0  0  0  0  0  0  0  0  0  0  0  0
   -6.3782  -16.3635   10.7174 N   0  0  0  0  0  0  0  0  0  0  0  0
   -4.7628  -22.0329   12.4590 C   0  0  0  0  0  0  0  0  0  0  0  0
   -3.6170  -22.8697   13.2518 C   0  0  0  0  0  0  0  0  0  0  0  0
   -3.8282  -24.1030   13.9451 C   0  0  0  0  0  0  0  0  0  0  0  0
   -5.0746  -24.7110   14.1012 C   0  0  0  0  0  0  0  0  0  0  0  0
   -5.1485  -25.8547   14.8312 N   0  0  0  0  0  0  0  0  0  0  0  0
   -6.3571  -26.4215   15.0288 C   0  0  0  0  0  0  0  0  0  0  0  0
   -7.5228  -25.8878   14.5204 C   0  0  0  0  0  0  0  0  0  0  0  0
   -7.4418  -24.7075   13.7641 C   0  0  0  0  0  0  0  0  0  0  0  0
   -6.2076  -24.0766   13.5203 C   0  0  0  0  0  0  0  0  0  0  0  0
   -6.0931  -22.8279   12.7589 C   0  0  0  0  0  0  0  0  0  0  0  0
   -3.6113  -21.5189   11.1808 H   0  0  0  0  0  0  0  0  0  0  0  0
   -3.4802  -20.7704   12.4924 H   0  0  0  0  0  0  0  0  0  0  0  0
   -5.0964  -21.3035   10.9037 H   0  0  0  0  0  0  0  0  0  0  0  0
   -5.3364  -16.6000   14.0465 H   0  0  0  0  0  0  0  0  0  0  0  0
   -4.7484  -14.2339   12.7262 H   0  0  0  0  0  0  0  0  0  0  0  0
   -6.7021  -12.7284   11.9545 H   0  0  0  0  0  0  0  0  0  0  0  0
   -9.2478  -12.7053   10.2557 H   0  0  0  0  0  0  0  0  0  0  0  0
   -8.9136  -13.4092    9.1030 H   0  0  0  0  0  0  0  0  0  0  0  0
   -7.2016  -10.2064    7.8925 H   0  0  0  0  0  0  0  0  0  0  0  0
   -8.8624  -10.6267    7.8954 H   0  0  0  0  0  0  0  0  0  0  0  0
   -9.2595   -9.0655   10.7953 H   0  0  0  0  0  0  0  0  0  0  0  0
   -7.5584   -8.6039   10.4070 H   0  0  0  0  0  0  0  0  0  0  0  0
   -8.4984  -11.1246   13.0836 H   0  0  0  0  0  0  0  0  0  0  0  0
   -9.5787  -11.7195   12.0075 H   0  0  0  0  0  0  0  0  0  0  0  0
   -2.6122  -22.4359   13.3074 H   0  0  0  0  0  0  0  0  0  0  0  0
   -2.9703  -24.5714   14.4275 H   0  0  0  0  0  0  0  0  0  0  0  0
   -6.3581  -27.3308   15.6210 H   0  0  0  0  0  0  0  0  0  0  0  0
   -8.4793  -26.3637   14.7044 H   0  0  0  0  0  0  0  0  0  0  0  0
   -8.3585  -24.2720   13.3709 H   0  0  0  0  0  0  0  0  0  0  0  0
   -7.0152  -22.3296   12.4448 H   0  0  0  0  0  0  0  0  0  0  0  0
  1  2  1  0
  2  3  1  0
  3  4  2  0
  3  5  1  0
  5  6  1  0
  6  7  2  0
  7  8  1  0
  8  9  1  0
  9 10  1  0
 10 11  1  0
 11 12  1  0
 12 13  1  0
  8 14  1  0
  2 15  1  0
 15 16  2  0
 16 17  1  0
 17 18  2  0
 18 19  1  0
 19 20  2  0
 20 21  1  0
 21 22  2  0
 22 23  1  0
 23 24  2  0
 14  5  2  0
 24 15  1  0
 13  9  1  0
 23 18  1  0
  1 25  1  0
  1 26  1  0
  1 27  1  0
  6 28  1  0
  7 29  1  0
  9 30  1  0
 10 31  1  0
 10 32  1  0
 11 33  1  0
 11 34  1  0
 12 35  1  0
 12 36  1  0
 13 37  1  0
 13 38  1  0
 16 39  1  0
 17 40  1  0
 20 41  1  0
 21 42  1  0
 22 43  1  0
 24 44  1  0
M  END
>  <Energy>  (287) 
2125.1008487266067

>  <compound_id>  (287) 
46840

>  <target_id>  (287) 
1

>  <reference_id>  (287) 
99

>  <inspiration_ids>  (287) 
[99, 68]

>  <energy_score>  (287) 
1993.0187447571022

>  <distance_score>  (287) 
14.865437723798994

>  <path>  (287) 
/opt/xchem-fragalysis-2/maxwin/BulkDock/SCRATCH/511025/C46840-P99/C46840-P99.minimised.mol

>  <scratch_subdir>  (287) 
/opt/xchem-fragalysis-2/maxwin/BulkDock/SCRATCH/511025/C46840-P99

>  <fragmenstein_runtime>  (287) 
57.04485535621643

>  <fragmenstein_outcome>  (287) 
too moved

>  <fragmenstein_mode>  (287) 
expansion

>  <fragmenstein_error>  (287) 


$$$$
C46840-P68
     RDKit          3D

 44 47  0  0  0  0  0  0  0  0999 V2000
  -10.7751  -22.7233   18.2997 C   0  0  0  0  0  0  0  0  0  0  0  0
  -10.2257  -21.5497   17.8178 N   0  0  0  0  0  0  0  0  0  0  0  0
  -10.6081  -20.0785   18.4542 C   0  0  0  0  0  0  0  0  0  0  0  0
  -11.2289  -19.7648   19.3783 O   0  0  0  0  0  0  0  0  0  0  0  0
   -9.9002  -18.9894   17.6851 C   0  0  0  0  0  0  0  0  0  0  0  0
   -8.8190  -18.1500   18.3144 C   0  0  0  0  0  0  0  0  0  0  0  0
   -8.1538  -17.3612   17.3716 C   0  0  0  0  0  0  0  0  0  0  0  0
   -8.5942  -17.6831   15.9642 N   0  0  0  0  0  0  0  0  0  0  0  0
   -8.2334  -16.7998   14.3460 C   0  0  0  0  0  0  0  0  0  0  0  0
   -9.6006  -16.7483   13.5096 C   0  0  0  0  0  0  0  0  0  0  0  0
  -10.2173  -15.2643   13.4560 C   0  0  0  0  0  0  0  0  0  0  0  0
   -9.2647  -14.2692   14.2119 C   0  0  0  0  0  0  0  0  0  0  0  0
   -7.9889  -15.2304   14.7672 C   0  0  0  0  0  0  0  0  0  0  0  0
  -10.0675  -18.7049   16.2889 N   0  0  0  0  0  0  0  0  0  0  0  0
  -10.4586  -23.4009   18.3570 C   0  0  0  0  0  0  0  0  0  0  0  0
  -10.5369  -24.5679   17.2849 C   0  0  0  0  0  0  0  0  0  0  0  0
  -10.2745  -25.9237   17.5884 C   0  0  0  0  0  0  0  0  0  0  0  0
   -9.7434  -26.3428   18.8061 C   0  0  0  0  0  0  0  0  0  0  0  0
   -9.5681  -27.6625   18.9939 N   0  0  0  0  0  0  0  0  0  0  0  0
   -8.9940  -28.0634   20.1433 C   0  0  0  0  0  0  0  0  0  0  0  0
   -8.5155  -27.1894   21.1042 C   0  0  0  0  0  0  0  0  0  0  0  0
   -8.6992  -25.8248   20.9148 C   0  0  0  0  0  0  0  0  0  0  0  0
   -9.3627  -25.3709   19.7743 C   0  0  0  0  0  0  0  0  0  0  0  0
   -9.6327  -23.9864   19.5866 C   0  0  0  0  0  0  0  0  0  0  0  0
  -10.8812  -22.0690   19.4361 H   0  0  0  0  0  0  0  0  0  0  0  0
  -11.5853  -22.4702   17.3136 H   0  0  0  0  0  0  0  0  0  0  0  0
  -12.0420  -22.6220   18.7023 H   0  0  0  0  0  0  0  0  0  0  0  0
   -8.6045  -18.1671   19.3746 H   0  0  0  0  0  0  0  0  0  0  0  0
   -7.4251  -16.5902   17.3590 H   0  0  0  0  0  0  0  0  0  0  0  0
   -7.3945  -17.2622   13.8378 H   0  0  0  0  0  0  0  0  0  0  0  0
   -9.2295  -17.2952   12.6708 H   0  0  0  0  0  0  0  0  0  0  0  0
  -10.4114  -17.4317   13.7551 H   0  0  0  0  0  0  0  0  0  0  0  0
  -11.2293  -15.2697   13.8579 H   0  0  0  0  0  0  0  0  0  0  0  0
  -10.3605  -14.8923   12.4497 H   0  0  0  0  0  0  0  0  0  0  0  0
   -8.8758  -13.5346   13.4778 H   0  0  0  0  0  0  0  0  0  0  0  0
   -9.7491  -13.5429   14.8305 H   0  0  0  0  0  0  0  0  0  0  0  0
   -7.3792  -15.1854   15.6686 H   0  0  0  0  0  0  0  0  0  0  0  0
   -7.2885  -14.7627   14.1432 H   0  0  0  0  0  0  0  0  0  0  0  0
  -10.8395  -24.3022   16.2680 H   0  0  0  0  0  0  0  0  0  0  0  0
  -10.4579  -26.6749   16.8213 H   0  0  0  0  0  0  0  0  0  0  0  0
   -8.9521  -29.1382   20.2768 H   0  0  0  0  0  0  0  0  0  0  0  0
   -8.0759  -27.5523   22.0267 H   0  0  0  0  0  0  0  0  0  0  0  0
   -8.3690  -25.1345   21.6863 H   0  0  0  0  0  0  0  0  0  0  0  0
   -9.2485  -23.2616   20.3103 H   0  0  0  0  0  0  0  0  0  0  0  0
  1  2  1  0
  2  3  1  0
  3  4  2  0
  3  5  1  0
  5  6  1  0
  6  7  2  0
  7  8  1  0
  8  9  1  0
  9 10  1  0
 10 11  1  0
 11 12  1  0
 12 13  1  0
  8 14  1  0
  2 15  1  0
 15 16  2  0
 16 17  1  0
 17 18  2  0
 18 19  1  0
 19 20  2  0
 20 21  1  0
 21 22  2  0
 22 23  1  0
 23 24  2  0
 14  5  2  0
 24 15  1  0
 13  9  1  0
 23 18  1  0
  1 25  1  0
  1 26  1  0
  1 27  1  0
  6 28  1  0
  7 29  1  0
  9 30  1  0
 10 31  1  0
 10 32  1  0
 11 33  1  0
 11 34  1  0
 12 35  1  0
 12 36  1  0
 13 37  1  0
 13 38  1  0
 16 39  1  0
 17 40  1  0
 20 41  1  0
 21 42  1  0
 22 43  1  0
 24 44  1  0
M  END
>  <Energy>  (288) 
983.43348894413441

>  <compound_id>  (288) 
46840

>  <target_id>  (288) 
1

>  <reference_id>  (288) 
68

>  <inspiration_ids>  (288) 
[99, 68]

>  <energy_score>  (288) 
851.3513849746215

>  <distance_score>  (288) 
13.710032157312556

>  <path>  (288) 
/opt/xchem-fragalysis-2/maxwin/BulkDock/SCRATCH/511025/C46840-P68/C46840-P68.minimised.mol

>  <scratch_subdir>  (288) 
/opt/xchem-fragalysis-2/maxwin/BulkDock/SCRATCH/511025/C46840-P68

>  <fragmenstein_runtime>  (288) 
58.87303948402405

>  <fragmenstein_outcome>  (288) 
too moved

>  <fragmenstein_mode>  (288) 
expansion

>  <fragmenstein_error>  (288) 


$$$$
C46841-P99
     RDKit          3D

 44 47  0  0  0  0  0  0  0  0999 V2000
   -8.1916  -20.8084   18.2280 O   0  0  0  0  0  0  0  0  0  0  0  0
   -7.3854  -20.6547   19.1044 C   0  0  0  0  0  0  0  0  0  0  0  0
   -6.4502  -19.5455   19.3621 N   0  0  0  0  0  0  0  0  0  0  0  0
   -6.2687  -18.1488   18.6391 C   0  0  0  0  0  0  0  0  0  0  0  0
   -7.2321  -17.2912   17.3436 C   0  0  0  0  0  0  0  0  0  0  0  0
   -8.3312  -16.6769   17.3047 C   0  0  0  0  0  0  0  0  0  0  0  0
   -8.0396  -16.9021   16.0062 C   0  0  0  0  0  0  0  0  0  0  0  0
   -7.5304  -15.7629   15.2806 N   0  0  0  0  0  0  0  0  0  0  0  0
   -8.4494  -14.4252   14.4505 C   0  0  0  0  0  0  0  0  0  0  0  0
   -9.8962  -14.6379   13.7623 C   0  0  0  0  0  0  0  0  0  0  0  0
  -10.2381  -13.9860   12.4423 C   0  0  0  0  0  0  0  0  0  0  0  0
   -9.3559  -12.8092   12.2550 C   0  0  0  0  0  0  0  0  0  0  0  0
   -8.4119  -12.8827   13.4059 C   0  0  0  0  0  0  0  0  0  0  0  0
   -6.6407  -15.9069   16.4915 N   0  0  0  0  0  0  0  0  0  0  0  0
   -7.4011  -21.8315   20.1731 C   0  0  0  0  0  0  0  0  0  0  0  0
   -8.4762  -22.7452   20.1411 C   0  0  0  0  0  0  0  0  0  0  0  0
   -8.5504  -23.8682   21.0042 C   0  0  0  0  0  0  0  0  0  0  0  0
   -7.5408  -24.1826   21.9065 C   0  0  0  0  0  0  0  0  0  0  0  0
   -7.6177  -25.2916   22.6789 N   0  0  0  0  0  0  0  0  0  0  0  0
   -6.5582  -25.6626   23.4228 C   0  0  0  0  0  0  0  0  0  0  0  0
   -5.4052  -24.9157   23.4818 C   0  0  0  0  0  0  0  0  0  0  0  0
   -5.3556  -23.7210   22.7537 C   0  0  0  0  0  0  0  0  0  0  0  0
   -6.4287  -23.3291   21.9288 C   0  0  0  0  0  0  0  0  0  0  0  0
   -6.3968  -22.1420   21.1136 C   0  0  0  0  0  0  0  0  0  0  0  0
   -5.9758  -19.7094   20.2367 H   0  0  0  0  0  0  0  0  0  0  0  0
   -6.4343  -17.5306   19.5268 H   0  0  0  0  0  0  0  0  0  0  0  0
   -5.2034  -18.0845   18.3945 H   0  0  0  0  0  0  0  0  0  0  0  0
   -8.4767  -15.8303   17.9366 H   0  0  0  0  0  0  0  0  0  0  0  0
   -8.3442  -17.6626   15.3165 H   0  0  0  0  0  0  0  0  0  0  0  0
   -7.5268  -14.5536   13.9333 H   0  0  0  0  0  0  0  0  0  0  0  0
  -10.4670  -13.9256   14.3114 H   0  0  0  0  0  0  0  0  0  0  0  0
  -10.2927  -15.6437   13.6758 H   0  0  0  0  0  0  0  0  0  0  0  0
  -11.3029  -13.7523   12.3394 H   0  0  0  0  0  0  0  0  0  0  0  0
  -10.1204  -14.7750   11.7540 H   0  0  0  0  0  0  0  0  0  0  0  0
   -9.9022  -11.8649   12.2429 H   0  0  0  0  0  0  0  0  0  0  0  0
   -8.8035  -12.7707   11.3301 H   0  0  0  0  0  0  0  0  0  0  0  0
   -7.4157  -12.7258   12.9717 H   0  0  0  0  0  0  0  0  0  0  0  0
   -8.7162  -12.0511   14.0653 H   0  0  0  0  0  0  0  0  0  0  0  0
   -9.2897  -22.5977   19.4296 H   0  0  0  0  0  0  0  0  0  0  0  0
   -9.4092  -24.5371   20.9283 H   0  0  0  0  0  0  0  0  0  0  0  0
   -6.6748  -26.5914   23.9723 H   0  0  0  0  0  0  0  0  0  0  0  0
   -4.5677  -25.2344   24.0918 H   0  0  0  0  0  0  0  0  0  0  0  0
   -4.4543  -23.1149   22.8078 H   0  0  0  0  0  0  0  0  0  0  0  0
   -5.5240  -21.5035   21.2132 H   0  0  0  0  0  0  0  0  0  0  0  0
  1  2  2  0
  2  3  1  0
  3  4  1  0
  4  5  1  0
  5  6  1  0
  6  7  2  0
  7  8  1  0
  8  9  1  0
  9 10  1  0
 10 11  1  0
 11 12  1  0
 12 13  1  0
  8 14  1  0
  2 15  1  0
 15 16  2  0
 16 17  1  0
 17 18  2  0
 18 19  1  0
 19 20  2  0
 20 21  1  0
 21 22  2  0
 22 23  1  0
 23 24  2  0
 14  5  2  0
 24 15  1  0
 13  9  1  0
 23 18  1  0
  3 25  1  0
  4 26  1  0
  4 27  1  0
  6 28  1  0
  7 29  1  0
  9 30  1  0
 10 31  1  0
 10 32  1  0
 11 33  1  0
 11 34  1  0
 12 35  1  0
 12 36  1  0
 13 37  1  0
 13 38  1  0
 16 39  1  0
 17 40  1  0
 20 41  1  0
 21 42  1  0
 22 43  1  0
 24 44  1  0
M  END
>  <Energy>  (289) 
521.66965593600139

>  <compound_id>  (289) 
46841

>  <target_id>  (289) 
1

>  <reference_id>  (289) 
99

>  <inspiration_ids>  (289) 
[99, 68]

>  <energy_score>  (289) 
450.80891134923866

>  <distance_score>  (289) 
13.790780158271609

>  <path>  (289) 
/opt/xchem-fragalysis-2/maxwin/BulkDock/SCRATCH/511025/C46841-P99/C46841-P99.minimised.mol

>  <scratch_subdir>  (289) 
/opt/xchem-fragalysis-2/maxwin/BulkDock/SCRATCH/511025/C46841-P99

>  <fragmenstein_runtime>  (289) 
91.2165539264679

>  <fragmenstein_outcome>  (289) 
too moved

>  <fragmenstein_mode>  (289) 
expansion

>  <fragmenstein_error>  (289) 


$$$$
C46841-P68
     RDKit          3D

 44 47  0  0  0  0  0  0  0  0999 V2000
  -11.0161  -18.8600   15.1403 O   0  0  0  0  0  0  0  0  0  0  0  0
  -10.1128  -18.7598   15.9753 C   0  0  0  0  0  0  0  0  0  0  0  0
   -8.6021  -17.6525   15.8596 N   0  0  0  0  0  0  0  0  0  0  0  0
   -8.0088  -16.4780   14.4342 C   0  0  0  0  0  0  0  0  0  0  0  0
   -7.9790  -14.5646   14.4079 C   0  0  0  0  0  0  0  0  0  0  0  0
   -8.9984  -13.5700   13.8452 C   0  0  0  0  0  0  0  0  0  0  0  0
   -8.3964  -12.4824   13.0758 C   0  0  0  0  0  0  0  0  0  0  0  0
   -6.9055  -12.6837   12.7752 N   0  0  0  0  0  0  0  0  0  0  0  0
   -5.2777  -11.6748   12.5125 C   0  0  0  0  0  0  0  0  0  0  0  0
   -4.2073  -10.3738   11.2684 C   0  0  0  0  0  0  0  0  0  0  0  0
   -3.8562   -9.0560   11.5794 C   0  0  0  0  0  0  0  0  0  0  0  0
   -5.0796   -8.9272   12.4627 C   0  0  0  0  0  0  0  0  0  0  0  0
   -5.4453  -10.1788   13.4109 C   0  0  0  0  0  0  0  0  0  0  0  0
   -6.8304  -13.8849   13.6784 N   0  0  0  0  0  0  0  0  0  0  0  0
  -10.3519  -19.9079   17.2332 C   0  0  0  0  0  0  0  0  0  0  0  0
  -11.5134  -20.7041   17.1056 C   0  0  0  0  0  0  0  0  0  0  0  0
  -11.6839  -21.9718   17.7464 C   0  0  0  0  0  0  0  0  0  0  0  0
  -10.7148  -22.5446   18.5574 C   0  0  0  0  0  0  0  0  0  0  0  0
  -10.8819  -23.7696   19.0927 N   0  0  0  0  0  0  0  0  0  0  0  0
   -9.8885  -24.2678   19.8593 C   0  0  0  0  0  0  0  0  0  0  0  0
   -8.7175  -23.5977   20.1324 C   0  0  0  0  0  0  0  0  0  0  0  0
   -8.5600  -22.3328   19.5781 C   0  0  0  0  0  0  0  0  0  0  0  0
   -9.5583  -21.7829   18.7587 C   0  0  0  0  0  0  0  0  0  0  0  0
   -9.3966  -20.5147   18.1003 C   0  0  0  0  0  0  0  0  0  0  0  0
   -8.0669  -17.7057   16.7293 H   0  0  0  0  0  0  0  0  0  0  0  0
   -7.0104  -16.7156   14.0418 H   0  0  0  0  0  0  0  0  0  0  0  0
   -8.7520  -16.7936   13.6715 H   0  0  0  0  0  0  0  0  0  0  0  0
  -10.0286  -13.8687   13.8556 H   0  0  0  0  0  0  0  0  0  0  0  0
   -8.9105  -11.6572   12.6239 H   0  0  0  0  0  0  0  0  0  0  0  0
   -5.9958  -11.4663   13.3090 H   0  0  0  0  0  0  0  0  0  0  0  0
   -4.9082   -9.9192   10.4843 H   0  0  0  0  0  0  0  0  0  0  0  0
   -3.4336  -10.3814   10.5312 H   0  0  0  0  0  0  0  0  0  0  0  0
   -3.9011   -8.3515   10.7258 H   0  0  0  0  0  0  0  0  0  0  0  0
   -2.7874   -9.0868   11.8345 H   0  0  0  0  0  0  0  0  0  0  0  0
   -5.2720   -8.1859   13.1306 H   0  0  0  0  0  0  0  0  0  0  0  0
   -5.6681   -8.3348   11.7344 H   0  0  0  0  0  0  0  0  0  0  0  0
   -4.8860  -10.4488   14.2563 H   0  0  0  0  0  0  0  0  0  0  0  0
   -6.4965  -10.0002   13.7547 H   0  0  0  0  0  0  0  0  0  0  0  0
  -12.3012  -20.3862   16.4201 H   0  0  0  0  0  0  0  0  0  0  0  0
  -12.5980  -22.5325   17.5568 H   0  0  0  0  0  0  0  0  0  0  0  0
  -10.0674  -25.2494   20.2663 H   0  0  0  0  0  0  0  0  0  0  0  0
   -7.9577  -24.0399   20.7627 H   0  0  0  0  0  0  0  0  0  0  0  0
   -7.6523  -21.7784   19.7847 H   0  0  0  0  0  0  0  0  0  0  0  0
   -8.4172  -20.0668   18.2176 H   0  0  0  0  0  0  0  0  0  0  0  0
  1  2  2  0
  2  3  1  0
  3  4  1  0
  4  5  1  0
  5  6  1  0
  6  7  2  0
  7  8  1  0
  8  9  1  0
  9 10  1  0
 10 11  1  0
 11 12  1  0
 12 13  1  0
  8 14  1  0
  2 15  1  0
 15 16  2  0
 16 17  1  0
 17 18  2  0
 18 19  1  0
 19 20  2  0
 20 21  1  0
 21 22  2  0
 22 23  1  0
 23 24  2  0
 14  5  2  0
 24 15  1  0
 13  9  1  0
 23 18  1  0
  3 25  1  0
  4 26  1  0
  4 27  1  0
  6 28  1  0
  7 29  1  0
  9 30  1  0
 10 31  1  0
 10 32  1  0
 11 33  1  0
 11 34  1  0
 12 35  1  0
 12 36  1  0
 13 37  1  0
 13 38  1  0
 16 39  1  0
 17 40  1  0
 20 41  1  0
 21 42  1  0
 22 43  1  0
 24 44  1  0
M  END
>  <Energy>  (290) 
779.35401734683899

>  <compound_id>  (290) 
46841

>  <target_id>  (290) 
1

>  <reference_id>  (290) 
68

>  <inspiration_ids>  (290) 
[99, 68]

>  <energy_score>  (290) 
708.493272760062

>  <distance_score>  (290) 
13.720927313779741

>  <path>  (290) 
/opt/xchem-fragalysis-2/maxwin/BulkDock/SCRATCH/511025/C46841-P68/C46841-P68.minimised.mol

>  <scratch_subdir>  (290) 
/opt/xchem-fragalysis-2/maxwin/BulkDock/SCRATCH/511025/C46841-P68

>  <fragmenstein_runtime>  (290) 
94.70829129219055

>  <fragmenstein_outcome>  (290) 
too moved

>  <fragmenstein_mode>  (290) 
expansion

>  <fragmenstein_error>  (290) 


$$$$
C46842-P99
     RDKit          3D

 41 44  0  0  0  0  0  0  0  0999 V2000
   -4.2723  -22.6792   13.9055 O   0  0  0  0  0  0  0  0  0  0  0  0
   -5.1563  -23.0007   13.1652 C   0  0  0  0  0  0  0  0  0  0  0  0
   -6.0167  -24.1844   13.1689 N   0  0  0  0  0  0  0  0  0  0  0  0
   -6.0002  -25.3585   13.9986 C   0  0  0  0  0  0  0  0  0  0  0  0
   -6.7316  -26.4867   13.6067 C   0  0  0  0  0  0  0  0  0  0  0  0
   -6.5816  -27.7363   14.2615 C   0  0  0  0  0  0  0  0  0  0  0  0
   -5.7261  -27.9206   15.3401 C   0  0  0  0  0  0  0  0  0  0  0  0
   -5.5175  -29.1595   15.8377 N   0  0  0  0  0  0  0  0  0  0  0  0
   -4.7461  -29.2892   16.9393 C   0  0  0  0  0  0  0  0  0  0  0  0
   -4.1224  -28.2220   17.5500 C   0  0  0  0  0  0  0  0  0  0  0  0
   -4.2785  -26.9544   16.9793 C   0  0  0  0  0  0  0  0  0  0  0  0
   -5.0848  -26.7731   15.8398 C   0  0  0  0  0  0  0  0  0  0  0  0
   -5.2209  -25.5109   15.1592 C   0  0  0  0  0  0  0  0  0  0  0  0
   -5.3887  -22.1080   11.9489 C   0  0  0  0  0  0  0  0  0  0  0  0
   -4.9435  -22.6214   10.7199 C   0  0  0  0  0  0  0  0  0  0  0  0
   -4.0517  -21.6508   10.2430 C   0  0  0  0  0  0  0  0  0  0  0  0
   -4.0473  -20.5677   11.0107 N   0  0  0  0  0  0  0  0  0  0  0  0
   -5.2132  -20.6600   11.7103 N   0  0  0  0  0  0  0  0  0  0  0  0
   -6.1278  -19.4411   11.9548 C   0  0  0  0  0  0  0  0  0  0  0  0
   -5.7635  -18.6219   13.1895 C   0  0  0  0  0  0  0  0  0  0  0  0
   -6.6925  -17.0912   13.6192 C   0  0  0  0  0  0  0  0  0  0  0  0
   -5.6294  -16.5524   12.9556 C   0  0  0  0  0  0  0  0  0  0  0  0
   -6.2191  -17.8694   11.7914 C   0  0  0  0  0  0  0  0  0  0  0  0
   -6.6017  -24.1701   12.3446 H   0  0  0  0  0  0  0  0  0  0  0  0
   -7.3787  -26.4448   12.7338 H   0  0  0  0  0  0  0  0  0  0  0  0
   -7.1172  -28.6018   13.8774 H   0  0  0  0  0  0  0  0  0  0  0  0
   -4.6550  -30.2988   17.3259 H   0  0  0  0  0  0  0  0  0  0  0  0
   -3.5073  -28.3692   18.4298 H   0  0  0  0  0  0  0  0  0  0  0  0
   -3.7592  -26.1071   17.4202 H   0  0  0  0  0  0  0  0  0  0  0  0
   -4.6503  -24.6598   15.5279 H   0  0  0  0  0  0  0  0  0  0  0  0
   -4.9277  -23.6583   10.4149 H   0  0  0  0  0  0  0  0  0  0  0  0
   -3.3399  -21.7213    9.4321 H   0  0  0  0  0  0  0  0  0  0  0  0
   -7.1127  -19.9131   11.8884 H   0  0  0  0  0  0  0  0  0  0  0  0
   -4.9852  -18.5636   13.8648 H   0  0  0  0  0  0  0  0  0  0  0  0
   -4.7885  -19.0071   12.8217 H   0  0  0  0  0  0  0  0  0  0  0  0
   -7.7996  -17.1553   13.4816 H   0  0  0  0  0  0  0  0  0  0  0  0
   -6.7540  -16.2884   14.3657 H   0  0  0  0  0  0  0  0  0  0  0  0
   -4.8110  -16.6084   13.7034 H   0  0  0  0  0  0  0  0  0  0  0  0
   -5.5927  -15.5263   12.6130 H   0  0  0  0  0  0  0  0  0  0  0  0
   -7.2376  -17.9356   12.1424 H   0  0  0  0  0  0  0  0  0  0  0  0
   -6.3764  -17.3652   10.8703 H   0  0  0  0  0  0  0  0  0  0  0  0
  1  2  2  0
  2  3  1  0
  3  4  1  0
  4  5  2  0
  5  6  1  0
  6  7  2  0
  7  8  1  0
  8  9  2  0
  9 10  1  0
 10 11  2  0
 11 12  1  0
 12 13  2  0
  2 14  1  0
 14 15  2  0
 15 16  1  0
 16 17  2  0
 17 18  1  0
 18 19  1  0
 19 20  1  0
 20 21  1  0
 21 22  1  0
 22 23  1  0
 13  4  1  0
 18 14  1  0
 23 19  1  0
 12  7  1  0
  3 24  1  0
  5 25  1  0
  6 26  1  0
  9 27  1  0
 10 28  1  0
 11 29  1  0
 13 30  1  0
 15 31  1  0
 16 32  1  0
 19 33  1  0
 20 34  1  0
 20 35  1  0
 21 36  1  0
 21 37  1  0
 22 38  1  0
 22 39  1  0
 23 40  1  0
 23 41  1  0
M  END
>  <Energy>  (291) 
437.113298583713

>  <compound_id>  (291) 
46842

>  <target_id>  (291) 
1

>  <reference_id>  (291) 
99

>  <inspiration_ids>  (291) 
[99, 68]

>  <energy_score>  (291) 
357.63845987567674

>  <distance_score>  (291) 
15.057691443332509

>  <path>  (291) 
/opt/xchem-fragalysis-2/maxwin/BulkDock/SCRATCH/511025/C46842-P99/C46842-P99.minimised.mol

>  <scratch_subdir>  (291) 
/opt/xchem-fragalysis-2/maxwin/BulkDock/SCRATCH/511025/C46842-P99

>  <fragmenstein_runtime>  (291) 
63.1884126663208

>  <fragmenstein_outcome>  (291) 
too moved

>  <fragmenstein_mode>  (291) 
expansion

>  <fragmenstein_error>  (291) 


$$$$
C46842-P68
     RDKit          3D

 41 44  0  0  0  0  0  0  0  0999 V2000
  -12.2512  -18.4877   16.4585 O   0  0  0  0  0  0  0  0  0  0  0  0
  -11.5542  -19.1698   15.7543 C   0  0  0  0  0  0  0  0  0  0  0  0
  -10.9912  -20.5569   15.9780 N   0  0  0  0  0  0  0  0  0  0  0  0
  -11.0406  -21.4163   17.1128 C   0  0  0  0  0  0  0  0  0  0  0  0
  -10.4501  -22.6797   16.8111 C   0  0  0  0  0  0  0  0  0  0  0  0
  -10.1379  -23.6537   17.7688 C   0  0  0  0  0  0  0  0  0  0  0  0
  -10.3844  -23.4172   19.0935 C   0  0  0  0  0  0  0  0  0  0  0  0
   -9.9171  -24.3102   19.9761 N   0  0  0  0  0  0  0  0  0  0  0  0
  -10.1672  -24.0906   21.2778 C   0  0  0  0  0  0  0  0  0  0  0  0
  -10.8775  -22.9991   21.7340 C   0  0  0  0  0  0  0  0  0  0  0  0
  -11.3239  -22.0506   20.8046 C   0  0  0  0  0  0  0  0  0  0  0  0
  -11.0699  -22.2214   19.4353 C   0  0  0  0  0  0  0  0  0  0  0  0
  -11.4146  -21.2293   18.4327 C   0  0  0  0  0  0  0  0  0  0  0  0
  -11.0393  -18.6991   14.3013 C   0  0  0  0  0  0  0  0  0  0  0  0
  -10.5877  -19.7646   13.4762 C   0  0  0  0  0  0  0  0  0  0  0  0
   -9.5579  -19.1994   12.4897 C   0  0  0  0  0  0  0  0  0  0  0  0
   -9.3553  -17.8854   12.7236 N   0  0  0  0  0  0  0  0  0  0  0  0
  -10.4520  -17.3696   13.4142 N   0  0  0  0  0  0  0  0  0  0  0  0
  -10.5611  -15.8149   13.2044 C   0  0  0  0  0  0  0  0  0  0  0  0
  -10.3320  -14.3003   12.2709 C   0  0  0  0  0  0  0  0  0  0  0  0
   -9.4495  -13.3004   12.9623 C   0  0  0  0  0  0  0  0  0  0  0  0
   -9.9417  -13.8231   14.2764 C   0  0  0  0  0  0  0  0  0  0  0  0
  -11.3987  -14.9083   13.9555 C   0  0  0  0  0  0  0  0  0  0  0  0
  -10.3858  -20.7916   15.2244 H   0  0  0  0  0  0  0  0  0  0  0  0
  -10.1718  -22.9106   15.7824 H   0  0  0  0  0  0  0  0  0  0  0  0
   -9.6452  -24.5747   17.4708 H   0  0  0  0  0  0  0  0  0  0  0  0
   -9.7901  -24.8426   21.9611 H   0  0  0  0  0  0  0  0  0  0  0  0
  -11.0658  -22.8681   22.7931 H   0  0  0  0  0  0  0  0  0  0  0  0
  -11.8533  -21.1688   21.1566 H   0  0  0  0  0  0  0  0  0  0  0  0
  -11.8788  -20.2934   18.7340 H   0  0  0  0  0  0  0  0  0  0  0  0
  -10.8389  -20.8221   13.5166 H   0  0  0  0  0  0  0  0  0  0  0  0
   -8.9623  -19.7737   11.7815 H   0  0  0  0  0  0  0  0  0  0  0  0
   -9.6318  -15.8271   13.7136 H   0  0  0  0  0  0  0  0  0  0  0  0
  -11.3053  -13.7700   12.2361 H   0  0  0  0  0  0  0  0  0  0  0  0
  -10.3468  -14.0759   11.2361 H   0  0  0  0  0  0  0  0  0  0  0  0
   -9.6840  -12.2721   12.6582 H   0  0  0  0  0  0  0  0  0  0  0  0
   -8.3707  -13.2892   12.8831 H   0  0  0  0  0  0  0  0  0  0  0  0
  -10.1091  -12.9954   14.9544 H   0  0  0  0  0  0  0  0  0  0  0  0
   -9.0993  -14.3798   14.6780 H   0  0  0  0  0  0  0  0  0  0  0  0
  -12.0085  -15.4958   14.6560 H   0  0  0  0  0  0  0  0  0  0  0  0
  -12.2490  -14.4257   13.4632 H   0  0  0  0  0  0  0  0  0  0  0  0
  1  2  2  0
  2  3  1  0
  3  4  1  0
  4  5  2  0
  5  6  1  0
  6  7  2  0
  7  8  1  0
  8  9  2  0
  9 10  1  0
 10 11  2  0
 11 12  1  0
 12 13  2  0
  2 14  1  0
 14 15  2  0
 15 16  1  0
 16 17  2  0
 17 18  1  0
 18 19  1  0
 19 20  1  0
 20 21  1  0
 21 22  1  0
 22 23  1  0
 13  4  1  0
 18 14  1  0
 23 19  1  0
 12  7  1  0
  3 24  1  0
  5 25  1  0
  6 26  1  0
  9 27  1  0
 10 28  1  0
 11 29  1  0
 13 30  1  0
 15 31  1  0
 16 32  1  0
 19 33  1  0
 20 34  1  0
 20 35  1  0
 21 36  1  0
 21 37  1  0
 22 38  1  0
 22 39  1  0
 23 40  1  0
 23 41  1  0
M  END
>  <Energy>  (292) 
319.7037808844936

>  <compound_id>  (292) 
46842

>  <target_id>  (292) 
1

>  <reference_id>  (292) 
68

>  <inspiration_ids>  (292) 
[99, 68]

>  <energy_score>  (292) 
240.22894217646189

>  <distance_score>  (292) 
14.681291680263412

>  <path>  (292) 
/opt/xchem-fragalysis-2/maxwin/BulkDock/SCRATCH/511025/C46842-P68/C46842-P68.minimised.mol

>  <scratch_subdir>  (292) 
/opt/xchem-fragalysis-2/maxwin/BulkDock/SCRATCH/511025/C46842-P68

>  <fragmenstein_runtime>  (292) 
31.411531686782837

>  <fragmenstein_outcome>  (292) 
too moved

>  <fragmenstein_mode>  (292) 
expansion

>  <fragmenstein_error>  (292) 


$$$$
C46845-P99
     RDKit          3D

 40 43  0  0  0  0  0  0  0  0999 V2000
   -4.4456  -19.8176   17.7258 O   0  0  0  0  0  0  0  0  0  0  0  0
   -5.6004  -19.4550   18.4385 S   0  0  0  0  0  0  0  0  0  0  0  0
   -6.7633  -18.6188   18.3102 O   0  0  0  0  0  0  0  0  0  0  0  0
   -6.6045  -21.4731   17.4279 N   0  0  0  0  0  0  0  0  0  0  0  0
   -6.4840  -23.5786   17.5127 C   0  0  0  0  0  0  0  0  0  0  0  0
   -7.6267  -24.9269   16.7260 C   0  0  0  0  0  0  0  0  0  0  0  0
   -7.9823  -26.3349   16.8001 C   0  0  0  0  0  0  0  0  0  0  0  0
   -7.9037  -26.9240   18.0872 N   0  0  0  0  0  0  0  0  0  0  0  0
   -8.4762  -27.9969   18.6481 N   0  0  0  0  0  0  0  0  0  0  0  0
   -8.4176  -27.7378   19.9621 C   0  0  0  0  0  0  0  0  0  0  0  0
   -7.7306  -26.5323   20.2725 C   0  0  0  0  0  0  0  0  0  0  0  0
   -7.4037  -26.0432   19.0404 C   0  0  0  0  0  0  0  0  0  0  0  0
   -6.7383  -25.0732   18.2095 C   0  0  0  0  0  0  0  0  0  0  0  0
   -4.4385  -17.4037   17.7939 C   0  0  0  0  0  0  0  0  0  0  0  0
   -3.5379  -17.8365   16.7372 C   0  0  0  0  0  0  0  0  0  0  0  0
   -3.3622  -17.3145   15.4576 C   0  0  0  0  0  0  0  0  0  0  0  0
   -3.9438  -16.2029   15.5005 N   0  0  0  0  0  0  0  0  0  0  0  0
   -3.8437  -15.9483   16.7603 N   0  0  0  0  0  0  0  0  0  0  0  0
   -2.8962  -14.2467   17.0670 C   0  0  0  0  0  0  0  0  0  0  0  0
   -1.4103  -13.6672   16.9608 C   0  0  0  0  0  0  0  0  0  0  0  0
   -1.2853  -12.2985   17.7530 C   0  0  0  0  0  0  0  0  0  0  0  0
   -2.4653  -11.4108   17.7734 C   0  0  0  0  0  0  0  0  0  0  0  0
   -3.3360  -12.5510   18.0737 C   0  0  0  0  0  0  0  0  0  0  0  0
   -5.6293  -21.4593   17.0388 H   0  0  0  0  0  0  0  0  0  0  0  0
   -8.2648  -24.2661   16.0218 H   0  0  0  0  0  0  0  0  0  0  0  0
   -8.6688  -26.8206   16.1159 H   0  0  0  0  0  0  0  0  0  0  0  0
   -8.8576  -28.4523   20.6429 H   0  0  0  0  0  0  0  0  0  0  0  0
   -7.5114  -26.1289   21.2504 H   0  0  0  0  0  0  0  0  0  0  0  0
   -5.9013  -25.7792   17.8881 H   0  0  0  0  0  0  0  0  0  0  0  0
   -3.2224  -18.7718   16.9164 H   0  0  0  0  0  0  0  0  0  0  0  0
   -2.8938  -17.5969   14.5333 H   0  0  0  0  0  0  0  0  0  0  0  0
   -2.2848  -14.8451   17.7869 H   0  0  0  0  0  0  0  0  0  0  0  0
   -0.5981  -14.2759   17.3585 H   0  0  0  0  0  0  0  0  0  0  0  0
   -1.1722  -13.6916   15.9367 H   0  0  0  0  0  0  0  0  0  0  0  0
   -0.3232  -11.7876   17.7067 H   0  0  0  0  0  0  0  0  0  0  0  0
   -1.3532  -12.5982   18.7828 H   0  0  0  0  0  0  0  0  0  0  0  0
   -3.0066  -10.8146   17.0581 H   0  0  0  0  0  0  0  0  0  0  0  0
   -2.3293  -10.6121   18.4822 H   0  0  0  0  0  0  0  0  0  0  0  0
   -3.3025  -12.6287   19.1579 H   0  0  0  0  0  0  0  0  0  0  0  0
   -4.3898  -12.1877   17.9587 H   0  0  0  0  0  0  0  0  0  0  0  0
  1  2  2  0
  2  3  2  0
  2  4  1  0
  4  5  1  0
  5  6  1  0
  6  7  2  0
  7  8  1  0
  8  9  1  0
  9 10  2  0
 10 11  1  0
 11 12  2  0
 12 13  1  0
  2 14  1  0
 14 15  2  0
 15 16  1  0
 16 17  2  0
 17 18  1  0
 18 19  1  0
 19 20  1  0
 20 21  1  0
 21 22  1  0
 22 23  1  0
 13  5  2  0
 18 14  1  0
 23 19  1  0
 12  8  1  0
  4 24  1  0
  6 25  1  0
  7 26  1  0
 10 27  1  0
 11 28  1  0
 13 29  1  0
 15 30  1  0
 16 31  1  0
 19 32  1  0
 20 33  1  0
 20 34  1  0
 21 35  1  0
 21 36  1  0
 22 37  1  0
 22 38  1  0
 23 39  1  0
 23 40  1  0
M  END
>  <Energy>  (293) 
1359.8549786696524

>  <compound_id>  (293) 
46845

>  <target_id>  (293) 
1

>  <reference_id>  (293) 
99

>  <inspiration_ids>  (293) 
[99, 68]

>  <energy_score>  (293) 
1350.3576531413482

>  <distance_score>  (293) 
13.645038024104498

>  <path>  (293) 
/opt/xchem-fragalysis-2/maxwin/BulkDock/SCRATCH/511025/C46845-P99/C46845-P99.minimised.mol

>  <scratch_subdir>  (293) 
/opt/xchem-fragalysis-2/maxwin/BulkDock/SCRATCH/511025/C46845-P99

>  <fragmenstein_runtime>  (293) 
30.991025924682617

>  <fragmenstein_outcome>  (293) 
too moved

>  <fragmenstein_mode>  (293) 
expansion

>  <fragmenstein_error>  (293) 


$$$$
C46845-P68
     RDKit          3D

 40 43  0  0  0  0  0  0  0  0999 V2000
   -6.2468  -26.8651   16.4731 O   0  0  0  0  0  0  0  0  0  0  0  0
   -6.8072  -26.7946   17.7951 S   0  0  0  0  0  0  0  0  0  0  0  0
   -6.3572  -27.6933   18.8348 O   0  0  0  0  0  0  0  0  0  0  0  0
   -8.4925  -26.8633   17.6340 N   0  0  0  0  0  0  0  0  0  0  0  0
   -9.2005  -27.9490   18.2666 C   0  0  0  0  0  0  0  0  0  0  0  0
   -9.0312  -28.2660   19.6660 C   0  0  0  0  0  0  0  0  0  0  0  0
   -9.7935  -29.2234   20.2067 C   0  0  0  0  0  0  0  0  0  0  0  0
  -10.7980  -29.8464   19.4959 N   0  0  0  0  0  0  0  0  0  0  0  0
  -11.7053  -30.7365   19.9713 N   0  0  0  0  0  0  0  0  0  0  0  0
  -12.4086  -31.0913   18.8967 C   0  0  0  0  0  0  0  0  0  0  0  0
  -12.0315  -30.3773   17.7435 C   0  0  0  0  0  0  0  0  0  0  0  0
  -11.0064  -29.5544   18.1522 C   0  0  0  0  0  0  0  0  0  0  0  0
  -10.1629  -28.5627   17.5370 C   0  0  0  0  0  0  0  0  0  0  0  0
   -6.2092  -24.9813   18.6051 C   0  0  0  0  0  0  0  0  0  0  0  0
   -5.2629  -25.4538   20.2525 C   0  0  0  0  0  0  0  0  0  0  0  0
   -4.2210  -23.7840   20.7091 C   0  0  0  0  0  0  0  0  0  0  0  0
   -4.1219  -22.6119   19.2752 N   0  0  0  0  0  0  0  0  0  0  0  0
   -5.5737  -23.1297   17.8493 N   0  0  0  0  0  0  0  0  0  0  0  0
   -6.0303  -21.1693   17.2838 C   0  0  0  0  0  0  0  0  0  0  0  0
   -5.2749  -19.3439   18.0797 C   0  0  0  0  0  0  0  0  0  0  0  0
   -4.3054  -18.3006   16.4916 C   0  0  0  0  0  0  0  0  0  0  0  0
   -5.0628  -18.9265   14.5373 C   0  0  0  0  0  0  0  0  0  0  0  0
   -4.9018  -19.4182   16.7497 C   0  0  0  0  0  0  0  0  0  0  0  0
   -8.7148  -26.7659   16.6392 H   0  0  0  0  0  0  0  0  0  0  0  0
   -8.3080  -27.7402   20.2745 H   0  0  0  0  0  0  0  0  0  0  0  0
   -9.7026  -29.5449   21.2163 H   0  0  0  0  0  0  0  0  0  0  0  0
  -13.1759  -31.8481   18.9955 H   0  0  0  0  0  0  0  0  0  0  0  0
  -12.4463  -30.4617   16.7497 H   0  0  0  0  0  0  0  0  0  0  0  0
  -10.3490  -28.3197   16.4964 H   0  0  0  0  0  0  0  0  0  0  0  0
   -5.2879  -26.3828   20.8139 H   0  0  0  0  0  0  0  0  0  0  0  0
   -3.5146  -23.6537   21.5225 H   0  0  0  0  0  0  0  0  0  0  0  0
   -5.0642  -22.0033   16.9138 H   0  0  0  0  0  0  0  0  0  0  0  0
   -6.1844  -18.7324   18.3893 H   0  0  0  0  0  0  0  0  0  0  0  0
   -4.8679  -19.3832   19.0934 H   0  0  0  0  0  0  0  0  0  0  0  0
   -3.2385  -18.2177   16.3474 H   0  0  0  0  0  0  0  0  0  0  0  0
   -4.3737  -17.1763   16.7097 H   0  0  0  0  0  0  0  0  0  0  0  0
   -4.6833  -19.4402   13.4667 H   0  0  0  0  0  0  0  0  0  0  0  0
   -5.8425  -18.2076   14.0012 H   0  0  0  0  0  0  0  0  0  0  0  0
   -5.0326  -20.5231   16.7637 H   0  0  0  0  0  0  0  0  0  0  0  0
   -3.7210  -19.3530   17.5978 H   0  0  0  0  0  0  0  0  0  0  0  0
  1  2  2  0
  2  3  2  0
  2  4  1  0
  4  5  1  0
  5  6  1  0
  6  7  2  0
  7  8  1  0
  8  9  1  0
  9 10  2  0
 10 11  1  0
 11 12  2  0
 12 13  1  0
  2 14  1  0
 14 15  2  0
 15 16  1  0
 16 17  2  0
 17 18  1  0
 18 19  1  0
 19 20  1  0
 20 21  1  0
 21 22  1  0
 22 23  1  0
 13  5  2  0
 18 14  1  0
 23 19  1  0
 12  8  1  0
  4 24  1  0
  6 25  1  0
  7 26  1  0
 10 27  1  0
 11 28  1  0
 13 29  1  0
 15 30  1  0
 16 31  1  0
 19 32  1  0
 20 33  1  0
 20 34  1  0
 21 35  1  0
 21 36  1  0
 22 37  1  0
 22 38  1  0
 23 39  1  0
 23 40  1  0
M  END
>  <Energy>  (294) 
1979.5838613463582

>  <compound_id>  (294) 
46845

>  <target_id>  (294) 
1

>  <reference_id>  (294) 
68

>  <inspiration_ids>  (294) 
[99, 68]

>  <energy_score>  (294) 
1970.0865358180522

>  <distance_score>  (294) 
15.242953972077729

>  <path>  (294) 
/opt/xchem-fragalysis-2/maxwin/BulkDock/SCRATCH/511025/C46845-P68/C46845-P68.minimised.mol

>  <scratch_subdir>  (294) 
/opt/xchem-fragalysis-2/maxwin/BulkDock/SCRATCH/511025/C46845-P68

>  <fragmenstein_runtime>  (294) 
35.11486268043518

>  <fragmenstein_outcome>  (294) 
too moved

>  <fragmenstein_mode>  (294) 
expansion

>  <fragmenstein_error>  (294) 


$$$$
C46846-P99
     RDKit          3D

 37 39  0  0  0  0  0  0  0  0999 V2000
  -13.0183  -17.7870   21.1713 F   0  0  0  0  0  0  0  0  0  0  0  0
  -12.0504  -18.4403   20.4719 C   0  0  0  0  0  0  0  0  0  0  0  0
  -12.2870  -19.7659   20.6641 F   0  0  0  0  0  0  0  0  0  0  0  0
  -10.7062  -18.0854   21.0524 C   0  0  0  0  0  0  0  0  0  0  0  0
   -9.6318  -18.4885   20.1689 N   0  0  0  0  0  0  0  0  0  0  0  0
   -9.2433  -17.6151   19.2169 N   0  0  0  0  0  0  0  0  0  0  0  0
   -8.2371  -18.2412   18.6151 C   0  0  0  0  0  0  0  0  0  0  0  0
   -7.9745  -19.5021   19.1790 C   0  0  0  0  0  0  0  0  0  0  0  0
   -8.8980  -19.6697   20.1987 C   0  0  0  0  0  0  0  0  0  0  0  0
   -9.1733  -20.8067   21.2084 C   0  0  0  0  0  0  0  0  0  0  0  0
   -8.3273  -22.4515   20.9554 S   0  0  0  0  0  0  0  0  0  0  0  0
   -9.0819  -23.4799   22.3124 C   0  0  0  0  0  0  0  0  0  0  0  0
   -8.2715  -24.6391   22.9014 C   0  0  0  0  0  0  0  0  0  0  0  0
   -8.8822  -25.4773   23.8517 C   0  0  0  0  0  0  0  0  0  0  0  0
   -8.2145  -26.5828   24.4085 C   0  0  0  0  0  0  0  0  0  0  0  0
   -6.9133  -26.8989   24.0553 C   0  0  0  0  0  0  0  0  0  0  0  0
   -6.3164  -27.9810   24.5800 N   0  0  0  0  0  0  0  0  0  0  0  0
   -5.0440  -28.2493   24.1990 C   0  0  0  0  0  0  0  0  0  0  0  0
   -4.3240  -27.4727   23.3169 C   0  0  0  0  0  0  0  0  0  0  0  0
   -4.9447  -26.3513   22.7836 C   0  0  0  0  0  0  0  0  0  0  0  0
   -6.2636  -26.0455   23.1424 C   0  0  0  0  0  0  0  0  0  0  0  0
   -6.9375  -24.9269   22.5896 C   0  0  0  0  0  0  0  0  0  0  0  0
  -12.1635  -18.2038   19.4111 H   0  0  0  0  0  0  0  0  0  0  0  0
  -10.5554  -18.5665   22.0235 H   0  0  0  0  0  0  0  0  0  0  0  0
  -10.6231  -17.0037   21.2076 H   0  0  0  0  0  0  0  0  0  0  0  0
   -7.7417  -17.7589   17.7890 H   0  0  0  0  0  0  0  0  0  0  0  0
   -7.2204  -20.2164   18.8796 H   0  0  0  0  0  0  0  0  0  0  0  0
  -10.2480  -21.0110   21.2185 H   0  0  0  0  0  0  0  0  0  0  0  0
   -8.8794  -20.4479   22.2008 H   0  0  0  0  0  0  0  0  0  0  0  0
  -10.0203  -23.8775   21.9115 H   0  0  0  0  0  0  0  0  0  0  0  0
   -9.3164  -22.7980   23.1373 H   0  0  0  0  0  0  0  0  0  0  0  0
   -9.8965  -25.2728   24.1821 H   0  0  0  0  0  0  0  0  0  0  0  0
   -8.7319  -27.2063   25.1310 H   0  0  0  0  0  0  0  0  0  0  0  0
   -4.5930  -29.1348   24.6371 H   0  0  0  0  0  0  0  0  0  0  0  0
   -3.3056  -27.7317   23.0523 H   0  0  0  0  0  0  0  0  0  0  0  0
   -4.4012  -25.7245   22.0813 H   0  0  0  0  0  0  0  0  0  0  0  0
   -6.4014  -24.2996   21.8795 H   0  0  0  0  0  0  0  0  0  0  0  0
  1  2  1  0
  2  3  1  0
  2  4  1  0
  4  5  1  0
  5  6  1  0
  6  7  2  0
  7  8  1  0
  8  9  2  0
  9 10  1  0
 10 11  1  0
 11 12  1  0
 12 13  1  0
 13 14  2  0
 14 15  1  0
 15 16  2  0
 16 17  1  0
 17 18  2  0
 18 19  1  0
 19 20  2  0
 20 21  1  0
 21 22  2  0
  9  5  1  0
 22 13  1  0
 21 16  1  0
  2 23  1  0
  4 24  1  0
  4 25  1  0
  7 26  1  0
  8 27  1  0
 10 28  1  0
 10 29  1  0
 12 30  1  0
 12 31  1  0
 14 32  1  0
 15 33  1  0
 18 34  1  0
 19 35  1  0
 20 36  1  0
 22 37  1  0
M  END
>  <Energy>  (295) 
44.989497026621436

>  <compound_id>  (295) 
46846

>  <target_id>  (295) 
1

>  <reference_id>  (295) 
99

>  <inspiration_ids>  (295) 
[99, 68]

>  <energy_score>  (295) 
-20.16360401762961

>  <distance_score>  (295) 
14.002918041755613

>  <path>  (295) 
/opt/xchem-fragalysis-2/maxwin/BulkDock/SCRATCH/511025/C46846-P99/C46846-P99.minimised.mol

>  <scratch_subdir>  (295) 
/opt/xchem-fragalysis-2/maxwin/BulkDock/SCRATCH/511025/C46846-P99

>  <fragmenstein_runtime>  (295) 
26.036293029785156

>  <fragmenstein_outcome>  (295) 
too moved

>  <fragmenstein_mode>  (295) 
expansion

>  <fragmenstein_error>  (295) 


$$$$
C46846-P68
     RDKit          3D

 37 39  0  0  0  0  0  0  0  0999 V2000
  -12.1142  -22.8759   18.3118 F   0  0  0  0  0  0  0  0  0  0  0  0
  -12.2084  -21.6447   17.7509 C   0  0  0  0  0  0  0  0  0  0  0  0
  -10.9732  -21.0961   17.7729 F   0  0  0  0  0  0  0  0  0  0  0  0
  -12.7782  -21.7423   16.3559 C   0  0  0  0  0  0  0  0  0  0  0  0
  -11.8747  -22.3858   15.4236 N   0  0  0  0  0  0  0  0  0  0  0  0
  -11.1509  -21.5799   14.6097 N   0  0  0  0  0  0  0  0  0  0  0  0
  -10.5272  -22.4248   13.7951 C   0  0  0  0  0  0  0  0  0  0  0  0
  -10.8365  -23.7660   14.0921 C   0  0  0  0  0  0  0  0  0  0  0  0
  -11.7352  -23.7494   15.1516 C   0  0  0  0  0  0  0  0  0  0  0  0
  -12.5645  -24.8874   15.8179 C   0  0  0  0  0  0  0  0  0  0  0  0
  -11.7371  -26.5314   16.2717 S   0  0  0  0  0  0  0  0  0  0  0  0
  -13.2224  -27.6311   16.5631 C   0  0  0  0  0  0  0  0  0  0  0  0
  -13.0341  -29.0212   17.1923 C   0  0  0  0  0  0  0  0  0  0  0  0
  -13.0519  -29.1727   18.5790 C   0  0  0  0  0  0  0  0  0  0  0  0
  -12.9487  -30.4430   19.1994 C   0  0  0  0  0  0  0  0  0  0  0  0
  -12.8014  -31.6149   18.4890 C   0  0  0  0  0  0  0  0  0  0  0  0
  -12.6910  -32.7849   19.1585 N   0  0  0  0  0  0  0  0  0  0  0  0
  -12.5222  -33.9029   18.4260 C   0  0  0  0  0  0  0  0  0  0  0  0
  -12.4802  -33.9091   17.0435 C   0  0  0  0  0  0  0  0  0  0  0  0
  -12.6222  -32.6946   16.3682 C   0  0  0  0  0  0  0  0  0  0  0  0
  -12.7842  -31.4998   17.0863 C   0  0  0  0  0  0  0  0  0  0  0  0
  -12.9164  -30.2157   16.4548 C   0  0  0  0  0  0  0  0  0  0  0  0
  -12.8588  -21.0416   18.3907 H   0  0  0  0  0  0  0  0  0  0  0  0
  -12.9866  -20.7391   15.9659 H   0  0  0  0  0  0  0  0  0  0  0  0
  -13.7167  -22.3054   16.3511 H   0  0  0  0  0  0  0  0  0  0  0  0
   -9.8857  -22.0471   13.0115 H   0  0  0  0  0  0  0  0  0  0  0  0
  -10.4823  -24.6464   13.5737 H   0  0  0  0  0  0  0  0  0  0  0  0
  -13.0156  -24.5193   16.7428 H   0  0  0  0  0  0  0  0  0  0  0  0
  -13.3751  -25.1310   15.1216 H   0  0  0  0  0  0  0  0  0  0  0  0
  -13.7119  -27.7617   15.5912 H   0  0  0  0  0  0  0  0  0  0  0  0
  -13.9225  -27.0662   17.1901 H   0  0  0  0  0  0  0  0  0  0  0  0
  -13.1214  -28.2748   19.1864 H   0  0  0  0  0  0  0  0  0  0  0  0
  -12.9655  -30.5325   20.2790 H   0  0  0  0  0  0  0  0  0  0  0  0
  -12.4162  -34.8206   18.9958 H   0  0  0  0  0  0  0  0  0  0  0  0
  -12.3393  -34.8354   16.4988 H   0  0  0  0  0  0  0  0  0  0  0  0
  -12.5908  -32.6837   15.2821 H   0  0  0  0  0  0  0  0  0  0  0  0
  -12.9085  -30.1620   15.3669 H   0  0  0  0  0  0  0  0  0  0  0  0
  1  2  1  0
  2  3  1  0
  2  4  1  0
  4  5  1  0
  5  6  1  0
  6  7  2  0
  7  8  1  0
  8  9  2  0
  9 10  1  0
 10 11  1  0
 11 12  1  0
 12 13  1  0
 13 14  2  0
 14 15  1  0
 15 16  2  0
 16 17  1  0
 17 18  2  0
 18 19  1  0
 19 20  2  0
 20 21  1  0
 21 22  2  0
  9  5  1  0
 22 13  1  0
 21 16  1  0
  2 23  1  0
  4 24  1  0
  4 25  1  0
  7 26  1  0
  8 27  1  0
 10 28  1  0
 10 29  1  0
 12 30  1  0
 12 31  1  0
 14 32  1  0
 15 33  1  0
 18 34  1  0
 19 35  1  0
 20 36  1  0
 22 37  1  0
M  END
>  <Energy>  (296) 
54.742374983731089

>  <compound_id>  (296) 
46846

>  <target_id>  (296) 
1

>  <reference_id>  (296) 
68

>  <inspiration_ids>  (296) 
[99, 68]

>  <energy_score>  (296) 
-10.410726060522137

>  <distance_score>  (296) 
13.946727081051321

>  <path>  (296) 
/opt/xchem-fragalysis-2/maxwin/BulkDock/SCRATCH/511025/C46846-P68/C46846-P68.minimised.mol

>  <scratch_subdir>  (296) 
/opt/xchem-fragalysis-2/maxwin/BulkDock/SCRATCH/511025/C46846-P68

>  <fragmenstein_runtime>  (296) 
26.30156898498535

>  <fragmenstein_outcome>  (296) 
too moved

>  <fragmenstein_mode>  (296) 
expansion

>  <fragmenstein_error>  (296) 


$$$$
C46847-P99
     RDKit          3D

 39 41  0  0  0  0  0  0  0  0999 V2000
   -0.0984  -20.3733    9.8008 C   0  0  0  0  0  0  0  0  0  0  0  0
   -1.4968  -20.4144    9.4400 N   0  0  0  0  0  0  0  0  0  0  0  0
   -1.9223  -19.6114    8.4336 N   0  0  0  0  0  0  0  0  0  0  0  0
   -3.2218  -19.8836    8.3528 C   0  0  0  0  0  0  0  0  0  0  0  0
   -3.6121  -20.8736    9.2824 C   0  0  0  0  0  0  0  0  0  0  0  0
   -2.4868  -21.2097   10.0025 C   0  0  0  0  0  0  0  0  0  0  0  0
   -2.2679  -22.1479   11.1922 C   0  0  0  0  0  0  0  0  0  0  0  0
   -3.4737  -22.9957   11.7019 C   0  0  0  0  0  0  0  0  0  0  0  0
   -3.1568  -23.6043   13.0042 O   0  0  0  0  0  0  0  0  0  0  0  0
   -3.9778  -24.6062   13.5072 C   0  0  0  0  0  0  0  0  0  0  0  0
   -4.8964  -25.1181   12.8851 O   0  0  0  0  0  0  0  0  0  0  0  0
   -3.5631  -24.9301   14.9491 C   0  0  0  0  0  0  0  0  0  0  0  0
   -4.1520  -26.1073   15.7615 C   0  0  0  0  0  0  0  0  0  0  0  0
   -4.3375  -25.9392   17.1474 C   0  0  0  0  0  0  0  0  0  0  0  0
   -4.5462  -27.0301   18.0068 C   0  0  0  0  0  0  0  0  0  0  0  0
   -4.5701  -28.3262   17.5347 C   0  0  0  0  0  0  0  0  0  0  0  0
   -4.6376  -29.3313   18.4166 N   0  0  0  0  0  0  0  0  0  0  0  0
   -4.6416  -30.5840   17.9252 C   0  0  0  0  0  0  0  0  0  0  0  0
   -4.5916  -30.8912   16.5791 C   0  0  0  0  0  0  0  0  0  0  0  0
   -4.5022  -29.8394   15.6742 C   0  0  0  0  0  0  0  0  0  0  0  0
   -4.4702  -28.5206   16.1424 C   0  0  0  0  0  0  0  0  0  0  0  0
   -4.2733  -27.4144   15.2703 C   0  0  0  0  0  0  0  0  0  0  0  0
    0.2546  -19.3408    9.7320 H   0  0  0  0  0  0  0  0  0  0  0  0
    0.0359  -20.7351   10.8217 H   0  0  0  0  0  0  0  0  0  0  0  0
    0.4482  -21.0087    9.0996 H   0  0  0  0  0  0  0  0  0  0  0  0
   -3.8370  -19.3469    7.6444 H   0  0  0  0  0  0  0  0  0  0  0  0
   -4.5998  -21.2598    9.4634 H   0  0  0  0  0  0  0  0  0  0  0  0
   -1.9030  -21.5501   12.0369 H   0  0  0  0  0  0  0  0  0  0  0  0
   -1.4520  -22.8393   10.9452 H   0  0  0  0  0  0  0  0  0  0  0  0
   -4.3513  -22.3573   11.8490 H   0  0  0  0  0  0  0  0  0  0  0  0
   -3.7131  -23.7834   10.9794 H   0  0  0  0  0  0  0  0  0  0  0  0
   -2.4775  -25.0951   14.9356 H   0  0  0  0  0  0  0  0  0  0  0  0
   -3.7491  -24.0099   15.5169 H   0  0  0  0  0  0  0  0  0  0  0  0
   -4.2463  -24.9501   17.5932 H   0  0  0  0  0  0  0  0  0  0  0  0
   -4.6331  -26.8586   19.0764 H   0  0  0  0  0  0  0  0  0  0  0  0
   -4.6798  -31.3485   18.6854 H   0  0  0  0  0  0  0  0  0  0  0  0
   -4.6065  -31.9161   16.2335 H   0  0  0  0  0  0  0  0  0  0  0  0
   -4.4391  -30.0520   14.6109 H   0  0  0  0  0  0  0  0  0  0  0  0
   -4.1327  -27.5969   14.2056 H   0  0  0  0  0  0  0  0  0  0  0  0
  1  2  1  0
  2  3  1  0
  3  4  2  0
  4  5  1  0
  5  6  2  0
  6  7  1  0
  7  8  1  0
  8  9  1  0
  9 10  1  0
 10 11  2  0
 10 12  1  0
 12 13  1  0
 13 14  2  0
 14 15  1  0
 15 16  2  0
 16 17  1  0
 17 18  2  0
 18 19  1  0
 19 20  2  0
 20 21  1  0
 21 22  2  0
  6  2  1  0
 22 13  1  0
 21 16  1  0
  1 23  1  0
  1 24  1  0
  1 25  1  0
  4 26  1  0
  5 27  1  0
  7 28  1  0
  7 29  1  0
  8 30  1  0
  8 31  1  0
 12 32  1  0
 12 33  1  0
 14 34  1  0
 15 35  1  0
 18 36  1  0
 19 37  1  0
 20 38  1  0
 22 39  1  0
M  END
>  <Energy>  (297) 
74.493533466393515

>  <compound_id>  (297) 
46847

>  <target_id>  (297) 
1

>  <reference_id>  (297) 
99

>  <inspiration_ids>  (297) 
[99, 68]

>  <energy_score>  (297) 
-16.367722392619726

>  <distance_score>  (297) 
14.408314629623959

>  <path>  (297) 
/opt/xchem-fragalysis-2/maxwin/BulkDock/SCRATCH/511025/C46847-P99/C46847-P99.minimised.mol

>  <scratch_subdir>  (297) 
/opt/xchem-fragalysis-2/maxwin/BulkDock/SCRATCH/511025/C46847-P99

>  <fragmenstein_runtime>  (297) 
31.74093008041382

>  <fragmenstein_outcome>  (297) 
too moved

>  <fragmenstein_mode>  (297) 
expansion

>  <fragmenstein_error>  (297) 


$$$$
C46847-P68
     RDKit          3D

 39 41  0  0  0  0  0  0  0  0999 V2000
   -4.3822  -14.3142    8.1847 C   0  0  0  0  0  0  0  0  0  0  0  0
   -3.3686  -14.4272    9.2180 N   0  0  0  0  0  0  0  0  0  0  0  0
   -2.0997  -14.1167    8.8006 N   0  0  0  0  0  0  0  0  0  0  0  0
   -1.5274  -15.2713    9.0567 C   0  0  0  0  0  0  0  0  0  0  0  0
   -2.5706  -16.0281    9.5927 C   0  0  0  0  0  0  0  0  0  0  0  0
   -3.4024  -15.2278   10.7274 C   0  0  0  0  0  0  0  0  0  0  0  0
   -5.3519  -15.5349   11.6252 C   0  0  0  0  0  0  0  0  0  0  0  0
   -6.0188  -17.3792   12.3782 C   0  0  0  0  0  0  0  0  0  0  0  0
   -5.9255  -19.1498   12.3209 O   0  0  0  0  0  0  0  0  0  0  0  0
   -5.1534  -20.3616   12.2471 C   0  0  0  0  0  0  0  0  0  0  0  0
   -3.9350  -20.4408   12.1669 O   0  0  0  0  0  0  0  0  0  0  0  0
   -5.9686  -21.6937   12.2375 C   0  0  0  0  0  0  0  0  0  0  0  0
   -5.9854  -23.0992   13.0396 C   0  0  0  0  0  0  0  0  0  0  0  0
   -7.2501  -23.7023   13.3071 C   0  0  0  0  0  0  0  0  0  0  0  0
   -7.4165  -24.8949   14.0674 C   0  0  0  0  0  0  0  0  0  0  0  0
   -6.3513  -25.5976   14.6012 C   0  0  0  0  0  0  0  0  0  0  0  0
   -6.5849  -26.7090   15.3481 N   0  0  0  0  0  0  0  0  0  0  0  0
   -5.5264  -27.3757   15.8516 C   0  0  0  0  0  0  0  0  0  0  0  0
   -4.2238  -26.9767   15.6297 C   0  0  0  0  0  0  0  0  0  0  0  0
   -3.9982  -25.8249   14.8559 C   0  0  0  0  0  0  0  0  0  0  0  0
   -5.0680  -25.0851   14.3141 C   0  0  0  0  0  0  0  0  0  0  0  0
   -4.8985  -23.8629   13.5205 C   0  0  0  0  0  0  0  0  0  0  0  0
   -4.2391  -13.3432    7.7115 H   0  0  0  0  0  0  0  0  0  0  0  0
   -5.3664  -14.4179    8.6167 H   0  0  0  0  0  0  0  0  0  0  0  0
   -4.1634  -15.0716    7.4302 H   0  0  0  0  0  0  0  0  0  0  0  0
   -0.5908  -15.5428    8.5908 H   0  0  0  0  0  0  0  0  0  0  0  0
   -2.6774  -17.0945    9.3723 H   0  0  0  0  0  0  0  0  0  0  0  0
   -5.2662  -14.9163   12.5766 H   0  0  0  0  0  0  0  0  0  0  0  0
   -6.0614  -15.0957   10.9122 H   0  0  0  0  0  0  0  0  0  0  0  0
   -6.3834  -17.2598   13.4069 H   0  0  0  0  0  0  0  0  0  0  0  0
   -6.6397  -17.5279   11.5420 H   0  0  0  0  0  0  0  0  0  0  0  0
   -6.9913  -21.3248   12.3414 H   0  0  0  0  0  0  0  0  0  0  0  0
   -5.6762  -22.0299   11.2402 H   0  0  0  0  0  0  0  0  0  0  0  0
   -8.1617  -23.2089   12.9741 H   0  0  0  0  0  0  0  0  0  0  0  0
   -8.4242  -25.2604   14.2549 H   0  0  0  0  0  0  0  0  0  0  0  0
   -5.7659  -28.2525   16.4461 H   0  0  0  0  0  0  0  0  0  0  0  0
   -3.3940  -27.5362   16.0464 H   0  0  0  0  0  0  0  0  0  0  0  0
   -2.9756  -25.4979   14.6812 H   0  0  0  0  0  0  0  0  0  0  0  0
   -3.8887  -23.4911   13.3446 H   0  0  0  0  0  0  0  0  0  0  0  0
  1  2  1  0
  2  3  1  0
  3  4  2  0
  4  5  1  0
  5  6  2  0
  6  7  1  0
  7  8  1  0
  8  9  1  0
  9 10  1  0
 10 11  2  0
 10 12  1  0
 12 13  1  0
 13 14  2  0
 14 15  1  0
 15 16  2  0
 16 17  1  0
 17 18  2  0
 18 19  1  0
 19 20  2  0
 20 21  1  0
 21 22  2  0
  6  2  1  0
 22 13  1  0
 21 16  1  0
  1 23  1  0
  1 24  1  0
  1 25  1  0
  4 26  1  0
  5 27  1  0
  7 28  1  0
  7 29  1  0
  8 30  1  0
  8 31  1  0
 12 32  1  0
 12 33  1  0
 14 34  1  0
 15 35  1  0
 18 36  1  0
 19 37  1  0
 20 38  1  0
 22 39  1  0
M  END
>  <Energy>  (298) 
508.8420484469608

>  <compound_id>  (298) 
46847

>  <target_id>  (298) 
1

>  <reference_id>  (298) 
68

>  <inspiration_ids>  (298) 
[99, 68]

>  <energy_score>  (298) 
417.98079258794604

>  <distance_score>  (298) 
14.779243079420981

>  <path>  (298) 
/opt/xchem-fragalysis-2/maxwin/BulkDock/SCRATCH/511025/C46847-P68/C46847-P68.minimised.mol

>  <scratch_subdir>  (298) 
/opt/xchem-fragalysis-2/maxwin/BulkDock/SCRATCH/511025/C46847-P68

>  <fragmenstein_runtime>  (298) 
37.348052978515625

>  <fragmenstein_outcome>  (298) 
too moved

>  <fragmenstein_mode>  (298) 
expansion

>  <fragmenstein_error>  (298) 


$$$$
C46853-P99
     RDKit          3D

 34 36  0  0  0  0  0  0  0  0999 V2000
  -15.2581  -24.3134   13.2051 O   0  0  0  0  0  0  0  0  0  0  0  0
  -14.5405  -24.8075   12.3790 C   0  0  0  0  0  0  0  0  0  0  0  0
  -14.3479  -24.4765   10.9613 N   0  0  0  0  0  0  0  0  0  0  0  0
  -15.0611  -23.4807   10.0707 C   0  0  0  0  0  0  0  0  0  0  0  0
  -14.2686  -22.6606    8.9769 C   0  0  0  0  0  0  0  0  0  0  0  0
  -14.5199  -21.1901    8.6969 N   0  0  0  0  0  0  0  0  0  0  0  0
  -14.8360  -20.8348    6.9535 C   0  0  0  0  0  0  0  0  0  0  0  0
  -14.3496  -19.1919    6.5613 C   0  0  0  0  0  0  0  0  0  0  0  0
  -14.5711  -18.3465    4.8254 Cl  0  0  0  0  0  0  0  0  0  0  0  0
  -13.3968  -18.3134    8.6173 C   0  0  0  0  0  0  0  0  0  0  0  0
  -13.6719  -19.8022    9.6092 N   0  0  0  0  0  0  0  0  0  0  0  0
  -13.8048  -26.0748   12.9735 C   0  0  0  0  0  0  0  0  0  0  0  0
  -13.2361  -27.1157   12.2382 C   0  0  0  0  0  0  0  0  0  0  0  0
  -12.7677  -28.3095   12.8719 C   0  0  0  0  0  0  0  0  0  0  0  0
  -12.8473  -28.5469   14.2440 C   0  0  0  0  0  0  0  0  0  0  0  0
  -12.4673  -29.7402   14.7593 N   0  0  0  0  0  0  0  0  0  0  0  0
  -12.5843  -29.9270   16.0914 C   0  0  0  0  0  0  0  0  0  0  0  0
  -13.0468  -28.9541   16.9554 C   0  0  0  0  0  0  0  0  0  0  0  0
  -13.4444  -27.7296   16.4108 C   0  0  0  0  0  0  0  0  0  0  0  0
  -13.3706  -27.5042   15.0236 C   0  0  0  0  0  0  0  0  0  0  0  0
  -13.8316  -26.2981   14.3865 C   0  0  0  0  0  0  0  0  0  0  0  0
  -13.7240  -25.1544   10.5455 H   0  0  0  0  0  0  0  0  0  0  0  0
  -15.7807  -24.1080    9.5280 H   0  0  0  0  0  0  0  0  0  0  0  0
  -15.6859  -22.8450   10.7027 H   0  0  0  0  0  0  0  0  0  0  0  0
  -14.5337  -23.1318    8.0210 H   0  0  0  0  0  0  0  0  0  0  0  0
  -13.1913  -22.7968    9.0299 H   0  0  0  0  0  0  0  0  0  0  0  0
  -15.2759  -21.6610    6.4137 H   0  0  0  0  0  0  0  0  0  0  0  0
  -14.0969  -18.7118    6.9173 H   0  0  0  0  0  0  0  0  0  0  0  0
  -13.1806  -27.0746   11.1553 H   0  0  0  0  0  0  0  0  0  0  0  0
  -12.3587  -29.1021   12.2458 H   0  0  0  0  0  0  0  0  0  0  0  0
  -12.2742  -30.9048   16.4469 H   0  0  0  0  0  0  0  0  0  0  0  0
  -13.1060  -29.1318   18.0221 H   0  0  0  0  0  0  0  0  0  0  0  0
  -13.8214  -26.9523   17.0723 H   0  0  0  0  0  0  0  0  0  0  0  0
  -14.2698  -25.5237   15.0199 H   0  0  0  0  0  0  0  0  0  0  0  0
  1  2  2  0
  2  3  1  0
  3  4  1  0
  4  5  1  0
  5  6  1  0
  6  7  1  0
  7  8  2  0
  8  9  1  0
  8 10  1  0
 10 11  2  0
  2 12  1  0
 12 13  2  0
 13 14  1  0
 14 15  2  0
 15 16  1  0
 16 17  2  0
 17 18  1  0
 18 19  2  0
 19 20  1  0
 20 21  2  0
 11  6  1  0
 21 12  1  0
 20 15  1  0
  3 22  1  0
  4 23  1  0
  4 24  1  0
  5 25  1  0
  5 26  1  0
  7 27  1  0
 10 28  1  0
 13 29  1  0
 14 30  1  0
 17 31  1  0
 18 32  1  0
 19 33  1  0
 21 34  1  0
M  END
>  <Energy>  (299) 
1190.8962115188856

>  <compound_id>  (299) 
46853

>  <target_id>  (299) 
1

>  <reference_id>  (299) 
99

>  <inspiration_ids>  (299) 
[99, 68]

>  <energy_score>  (299) 
1130.3530933727843

>  <distance_score>  (299) 
14.78545545147398

>  <path>  (299) 
/opt/xchem-fragalysis-2/maxwin/BulkDock/SCRATCH/511025/C46853-P99/C46853-P99.minimised.mol

>  <scratch_subdir>  (299) 
/opt/xchem-fragalysis-2/maxwin/BulkDock/SCRATCH/511025/C46853-P99

>  <fragmenstein_runtime>  (299) 
15.833425760269165

>  <fragmenstein_outcome>  (299) 
too moved

>  <fragmenstein_mode>  (299) 
expansion

>  <fragmenstein_error>  (299) 


$$$$
C46853-P68
     RDKit          3D

 34 36  0  0  0  0  0  0  0  0999 V2000
  -12.7494  -26.4254   11.0392 O   0  0  0  0  0  0  0  0  0  0  0  0
  -11.5605  -26.2724   11.1119 C   0  0  0  0  0  0  0  0  0  0  0  0
  -10.6724  -25.3617   10.3900 N   0  0  0  0  0  0  0  0  0  0  0  0
  -10.9540  -24.3842    9.2406 C   0  0  0  0  0  0  0  0  0  0  0  0
   -9.9988  -23.1522    9.1352 C   0  0  0  0  0  0  0  0  0  0  0  0
  -10.0667  -22.0383    8.1497 N   0  0  0  0  0  0  0  0  0  0  0  0
   -9.4712  -20.7880    8.3183 C   0  0  0  0  0  0  0  0  0  0  0  0
   -8.9194  -20.4281    7.1146 C   0  0  0  0  0  0  0  0  0  0  0  0
   -7.6743  -19.3051    6.8017 Cl  0  0  0  0  0  0  0  0  0  0  0  0
   -9.5656  -21.2873    6.2158 C   0  0  0  0  0  0  0  0  0  0  0  0
  -10.2973  -22.2431    6.8303 N   0  0  0  0  0  0  0  0  0  0  0  0
  -10.9283  -27.2816   12.1317 C   0  0  0  0  0  0  0  0  0  0  0  0
   -9.9539  -26.9979   13.0913 C   0  0  0  0  0  0  0  0  0  0  0  0
   -9.5565  -27.9813   14.0634 C   0  0  0  0  0  0  0  0  0  0  0  0
  -10.0796  -29.2834   14.1236 C   0  0  0  0  0  0  0  0  0  0  0  0
   -9.6540  -30.2143   15.0281 N   0  0  0  0  0  0  0  0  0  0  0  0
  -10.1388  -31.4783   14.9388 C   0  0  0  0  0  0  0  0  0  0  0  0
  -11.1181  -31.8502   14.0482 C   0  0  0  0  0  0  0  0  0  0  0  0
  -11.5939  -30.8814   13.1648 C   0  0  0  0  0  0  0  0  0  0  0  0
  -11.0646  -29.5780   13.1689 C   0  0  0  0  0  0  0  0  0  0  0  0
  -11.4856  -28.5847   12.2236 C   0  0  0  0  0  0  0  0  0  0  0  0
   -9.7120  -25.5632   10.6462 H   0  0  0  0  0  0  0  0  0  0  0  0
  -10.8929  -24.9789    8.3230 H   0  0  0  0  0  0  0  0  0  0  0  0
  -11.9939  -24.0604    9.3478 H   0  0  0  0  0  0  0  0  0  0  0  0
  -10.0455  -22.6685   10.1132 H   0  0  0  0  0  0  0  0  0  0  0  0
   -9.0002  -23.5747    8.9758 H   0  0  0  0  0  0  0  0  0  0  0  0
   -9.3036  -20.3871    9.2929 H   0  0  0  0  0  0  0  0  0  0  0  0
   -9.4875  -21.3100    5.1370 H   0  0  0  0  0  0  0  0  0  0  0  0
   -9.5102  -26.0065   13.1436 H   0  0  0  0  0  0  0  0  0  0  0  0
   -8.7974  -27.7086   14.7976 H   0  0  0  0  0  0  0  0  0  0  0  0
   -9.7177  -32.1944   15.6364 H   0  0  0  0  0  0  0  0  0  0  0  0
  -11.5011  -32.8639   14.0290 H   0  0  0  0  0  0  0  0  0  0  0  0
  -12.3647  -31.1555   12.4474 H   0  0  0  0  0  0  0  0  0  0  0  0
  -12.2780  -28.8456   11.5190 H   0  0  0  0  0  0  0  0  0  0  0  0
  1  2  2  0
  2  3  1  0
  3  4  1  0
  4  5  1  0
  5  6  1  0
  6  7  1  0
  7  8  2  0
  8  9  1  0
  8 10  1  0
 10 11  2  0
  2 12  1  0
 12 13  2  0
 13 14  1  0
 14 15  2  0
 15 16  1  0
 16 17  2  0
 17 18  1  0
 18 19  2  0
 19 20  1  0
 20 21  2  0
 11  6  1  0
 21 12  1  0
 20 15  1  0
  3 22  1  0
  4 23  1  0
  4 24  1  0
  5 25  1  0
  5 26  1  0
  7 27  1  0
 10 28  1  0
 13 29  1  0
 14 30  1  0
 17 31  1  0
 18 32  1  0
 19 33  1  0
 21 34  1  0
M  END
>  <Energy>  (300) 
76.086089226580384

>  <compound_id>  (300) 
46853

>  <target_id>  (300) 
1

>  <reference_id>  (300) 
68

>  <inspiration_ids>  (300) 
[99, 68]

>  <energy_score>  (300) 
15.542971080466202

>  <distance_score>  (300) 
14.50097027716301

>  <path>  (300) 
/opt/xchem-fragalysis-2/maxwin/BulkDock/SCRATCH/511025/C46853-P68/C46853-P68.minimised.mol

>  <scratch_subdir>  (300) 
/opt/xchem-fragalysis-2/maxwin/BulkDock/SCRATCH/511025/C46853-P68

>  <fragmenstein_runtime>  (300) 
23.89426350593567

>  <fragmenstein_outcome>  (300) 
too moved

>  <fragmenstein_mode>  (300) 
expansion

>  <fragmenstein_error>  (300) 


$$$$
C46855-P99
     RDKit          3D

 31 33  0  0  0  0  0  0  0  0999 V2000
   -8.4767  -17.7912   17.2063 O   0  0  0  0  0  0  0  0  0  0  0  0
   -7.3491  -17.4801   17.4094 C   0  0  0  0  0  0  0  0  0  0  0  0
   -6.8211  -16.0577   16.3511 C   0  0  0  0  0  0  0  0  0  0  0  0
   -7.1902  -15.9782   14.7518 N   0  0  0  0  0  0  0  0  0  0  0  0
   -5.9901  -16.0746   13.5044 C   0  0  0  0  0  0  0  0  0  0  0  0
   -5.6480  -14.4551   12.9643 C   0  0  0  0  0  0  0  0  0  0  0  0
   -6.5638  -12.5681   12.4463 Cl  0  0  0  0  0  0  0  0  0  0  0  0
   -7.3880  -14.1669   13.7211 C   0  0  0  0  0  0  0  0  0  0  0  0
   -7.9943  -14.9803   14.5352 N   0  0  0  0  0  0  0  0  0  0  0  0
   -6.2104  -18.2014   18.3847 N   0  0  0  0  0  0  0  0  0  0  0  0
   -6.2708  -19.4657   19.1673 C   0  0  0  0  0  0  0  0  0  0  0  0
   -5.2313  -19.7184   20.0699 C   0  0  0  0  0  0  0  0  0  0  0  0
   -5.1085  -20.9456   20.7752 C   0  0  0  0  0  0  0  0  0  0  0  0
   -6.0012  -21.9905   20.6217 C   0  0  0  0  0  0  0  0  0  0  0  0
   -5.8458  -23.1166   21.3446 N   0  0  0  0  0  0  0  0  0  0  0  0
   -6.7678  -24.0811   21.1898 C   0  0  0  0  0  0  0  0  0  0  0  0
   -7.8288  -23.9902   20.3052 C   0  0  0  0  0  0  0  0  0  0  0  0
   -7.9459  -22.8408   19.5336 C   0  0  0  0  0  0  0  0  0  0  0  0
   -7.0411  -21.7919   19.6988 C   0  0  0  0  0  0  0  0  0  0  0  0
   -7.1523  -20.5605   18.9764 C   0  0  0  0  0  0  0  0  0  0  0  0
   -6.9959  -15.0649   16.6949 H   0  0  0  0  0  0  0  0  0  0  0  0
   -5.7335  -16.0458   16.3465 H   0  0  0  0  0  0  0  0  0  0  0  0
   -5.2336  -16.7692   13.7728 H   0  0  0  0  0  0  0  0  0  0  0  0
   -8.1709  -13.4326   13.3837 H   0  0  0  0  0  0  0  0  0  0  0  0
   -5.3667  -17.6394   18.4016 H   0  0  0  0  0  0  0  0  0  0  0  0
   -4.4761  -18.9565   20.2543 H   0  0  0  0  0  0  0  0  0  0  0  0
   -4.2824  -21.0678   21.4736 H   0  0  0  0  0  0  0  0  0  0  0  0
   -6.6140  -24.9264   21.8475 H   0  0  0  0  0  0  0  0  0  0  0  0
   -8.5851  -24.7620   20.2148 H   0  0  0  0  0  0  0  0  0  0  0  0
   -8.7608  -22.7644   18.8226 H   0  0  0  0  0  0  0  0  0  0  0  0
   -7.9445  -20.4882   18.2310 H   0  0  0  0  0  0  0  0  0  0  0  0
  1  2  2  0
  2  3  1  0
  3  4  1  0
  4  5  1  0
  5  6  2  0
  6  7  1  0
  6  8  1  0
  8  9  2  0
  2 10  1  0
 10 11  1  0
 11 12  2  0
 12 13  1  0
 13 14  2  0
 14 15  1  0
 15 16  2  0
 16 17  1  0
 17 18  2  0
 18 19  1  0
 19 20  2  0
  9  4  1  0
 20 11  1  0
 19 14  1  0
  3 21  1  0
  3 22  1  0
  5 23  1  0
  8 24  1  0
 10 25  1  0
 12 26  1  0
 13 27  1  0
 16 28  1  0
 17 29  1  0
 18 30  1  0
 20 31  1  0
M  END
>  <Energy>  (301) 
384.07493405524173

>  <compound_id>  (301) 
46855

>  <target_id>  (301) 
1

>  <reference_id>  (301) 
99

>  <inspiration_ids>  (301) 
[99, 68]

>  <energy_score>  (301) 
312.97675238449847

>  <distance_score>  (301) 
14.800381476530458

>  <path>  (301) 
/opt/xchem-fragalysis-2/maxwin/BulkDock/SCRATCH/511025/C46855-P99/C46855-P99.minimised.mol

>  <scratch_subdir>  (301) 
/opt/xchem-fragalysis-2/maxwin/BulkDock/SCRATCH/511025/C46855-P99

>  <fragmenstein_runtime>  (301) 
19.43980360031128

>  <fragmenstein_outcome>  (301) 
too moved

>  <fragmenstein_mode>  (301) 
expansion

>  <fragmenstein_error>  (301) 


$$$$
C46855-P68
     RDKit          3D

 31 33  0  0  0  0  0  0  0  0999 V2000
   -9.6981  -23.5245   11.6701 O   0  0  0  0  0  0  0  0  0  0  0  0
   -8.6526  -23.9974   11.3080 C   0  0  0  0  0  0  0  0  0  0  0  0
   -7.8985  -23.3814   10.0655 C   0  0  0  0  0  0  0  0  0  0  0  0
   -7.9787  -21.9243    9.6911 N   0  0  0  0  0  0  0  0  0  0  0  0
   -8.8415  -21.3215    8.7725 C   0  0  0  0  0  0  0  0  0  0  0  0
   -8.1992  -20.2108    8.2530 C   0  0  0  0  0  0  0  0  0  0  0  0
   -8.6982  -19.0403    7.1059 Cl  0  0  0  0  0  0  0  0  0  0  0  0
   -6.9554  -20.2136    8.8953 C   0  0  0  0  0  0  0  0  0  0  0  0
   -6.8290  -21.2031    9.7882 N   0  0  0  0  0  0  0  0  0  0  0  0
   -7.9113  -25.2144   11.7899 N   0  0  0  0  0  0  0  0  0  0  0  0
   -8.2766  -26.2223   12.7558 C   0  0  0  0  0  0  0  0  0  0  0  0
   -9.5020  -26.3475   13.4023 C   0  0  0  0  0  0  0  0  0  0  0  0
   -9.8054  -27.4986   14.2059 C   0  0  0  0  0  0  0  0  0  0  0  0
   -8.9252  -28.5723   14.4015 C   0  0  0  0  0  0  0  0  0  0  0  0
   -9.2875  -29.7145   15.0584 N   0  0  0  0  0  0  0  0  0  0  0  0
   -8.3666  -30.7077   15.1640 C   0  0  0  0  0  0  0  0  0  0  0  0
   -7.0763  -30.6132   14.6913 C   0  0  0  0  0  0  0  0  0  0  0  0
   -6.7226  -29.4502   14.0106 C   0  0  0  0  0  0  0  0  0  0  0  0
   -7.6538  -28.4123   13.8259 C   0  0  0  0  0  0  0  0  0  0  0  0
   -7.3512  -27.2558   13.0308 C   0  0  0  0  0  0  0  0  0  0  0  0
   -6.8254  -23.5869   10.1608 H   0  0  0  0  0  0  0  0  0  0  0  0
   -8.2598  -23.9164    9.1783 H   0  0  0  0  0  0  0  0  0  0  0  0
   -9.7999  -21.7684    8.5518 H   0  0  0  0  0  0  0  0  0  0  0  0
   -6.1325  -19.5312    8.7436 H   0  0  0  0  0  0  0  0  0  0  0  0
   -7.0183  -25.2711   11.3153 H   0  0  0  0  0  0  0  0  0  0  0  0
  -10.2724  -25.5899   13.2681 H   0  0  0  0  0  0  0  0  0  0  0  0
  -10.7964  -27.5628   14.6537 H   0  0  0  0  0  0  0  0  0  0  0  0
   -8.7104  -31.6105   15.6571 H   0  0  0  0  0  0  0  0  0  0  0  0
   -6.3709  -31.4248   14.8232 H   0  0  0  0  0  0  0  0  0  0  0  0
   -5.7188  -29.3664   13.6010 H   0  0  0  0  0  0  0  0  0  0  0  0
   -6.3640  -27.2036   12.5723 H   0  0  0  0  0  0  0  0  0  0  0  0
  1  2  2  0
  2  3  1  0
  3  4  1  0
  4  5  1  0
  5  6  2  0
  6  7  1  0
  6  8  1  0
  8  9  2  0
  2 10  1  0
 10 11  1  0
 11 12  2  0
 12 13  1  0
 13 14  2  0
 14 15  1  0
 15 16  2  0
 16 17  1  0
 17 18  2  0
 18 19  1  0
 19 20  2  0
  9  4  1  0
 20 11  1  0
 19 14  1  0
  3 21  1  0
  3 22  1  0
  5 23  1  0
  8 24  1  0
 10 25  1  0
 12 26  1  0
 13 27  1  0
 16 28  1  0
 17 29  1  0
 18 30  1  0
 20 31  1  0
M  END
>  <Energy>  (302) 
61.219660495762419

>  <compound_id>  (302) 
46855

>  <target_id>  (302) 
1

>  <reference_id>  (302) 
68

>  <inspiration_ids>  (302) 
[99, 68]

>  <energy_score>  (302) 
-9.878521174978289

>  <distance_score>  (302) 
14.56140985415733

>  <path>  (302) 
/opt/xchem-fragalysis-2/maxwin/BulkDock/SCRATCH/511025/C46855-P68/C46855-P68.minimised.mol

>  <scratch_subdir>  (302) 
/opt/xchem-fragalysis-2/maxwin/BulkDock/SCRATCH/511025/C46855-P68

>  <fragmenstein_runtime>  (302) 
19.42012858390808

>  <fragmenstein_outcome>  (302) 
too moved

>  <fragmenstein_mode>  (302) 
expansion

>  <fragmenstein_error>  (302) 


$$$$
C46856-P99
     RDKit          3D

 28 30  0  0  0  0  0  0  0  0999 V2000
  -10.9864  -18.0008   13.8101 O   0  0  0  0  0  0  0  0  0  0  0  0
  -10.0962  -17.4827   13.2001 C   0  0  0  0  0  0  0  0  0  0  0  0
  -10.2983  -15.6302   13.2380 C   0  0  0  0  0  0  0  0  0  0  0  0
   -9.9282  -14.0850   12.7022 N   0  0  0  0  0  0  0  0  0  0  0  0
   -9.2027  -13.0888   13.3618 C   0  0  0  0  0  0  0  0  0  0  0  0
   -9.0486  -11.9945   12.5268 C   0  0  0  0  0  0  0  0  0  0  0  0
   -8.2689  -10.4954   12.7041 Cl  0  0  0  0  0  0  0  0  0  0  0  0
   -9.8669  -12.2985   11.4487 C   0  0  0  0  0  0  0  0  0  0  0  0
  -10.4671  -13.4797   11.6041 N   0  0  0  0  0  0  0  0  0  0  0  0
   -9.0234  -18.1238   12.3899 N   0  0  0  0  0  0  0  0  0  0  0  0
   -8.7502  -19.8457   11.9301 C   0  0  0  0  0  0  0  0  0  0  0  0
   -7.4654  -20.3175   11.4323 C   0  0  0  0  0  0  0  0  0  0  0  0
   -6.9342  -21.6889   11.5235 C   0  0  0  0  0  0  0  0  0  0  0  0
   -7.7030  -22.7285   12.1274 C   0  0  0  0  0  0  0  0  0  0  0  0
   -7.3277  -23.9892   12.4126 N   0  0  0  0  0  0  0  0  0  0  0  0
   -8.5602  -24.7969   13.1753 S   0  0  0  0  0  0  0  0  0  0  0  0
   -9.6805  -23.5013   13.1057 C   0  0  0  0  0  0  0  0  0  0  0  0
   -9.0600  -22.4067   12.5455 C   0  0  0  0  0  0  0  0  0  0  0  0
   -9.6087  -21.0683   12.4785 C   0  0  0  0  0  0  0  0  0  0  0  0
  -11.1913  -15.3818   13.8098 H   0  0  0  0  0  0  0  0  0  0  0  0
  -10.7997  -15.7288   12.2885 H   0  0  0  0  0  0  0  0  0  0  0  0
   -8.9748  -13.2824   14.3798 H   0  0  0  0  0  0  0  0  0  0  0  0
  -10.1108  -11.6977   10.5828 H   0  0  0  0  0  0  0  0  0  0  0  0
   -8.3963  -17.4270   12.0887 H   0  0  0  0  0  0  0  0  0  0  0  0
   -6.7130  -19.6062   11.0959 H   0  0  0  0  0  0  0  0  0  0  0  0
   -5.9163  -21.8850   11.1953 H   0  0  0  0  0  0  0  0  0  0  0  0
  -10.6837  -23.6152   13.4743 H   0  0  0  0  0  0  0  0  0  0  0  0
  -10.4804  -20.8352   13.0822 H   0  0  0  0  0  0  0  0  0  0  0  0
  1  2  2  0
  2  3  1  0
  3  4  1  0
  4  5  1  0
  5  6  2  0
  6  7  1  0
  6  8  1  0
  8  9  2  0
  2 10  1  0
 10 11  1  0
 11 12  1  0
 12 13  2  0
 13 14  1  0
 14 15  2  0
 15 16  1  0
 16 17  1  0
 17 18  2  0
 18 19  1  0
  9  4  1  0
 19 11  2  0
 18 14  1  0
  3 20  1  0
  3 21  1  0
  5 22  1  0
  8 23  1  0
 10 24  1  0
 12 25  1  0
 13 26  1  0
 17 27  1  0
 19 28  1  0
M  END
>  <Energy>  (303) 
220.67039959053491

>  <compound_id>  (303) 
46856

>  <target_id>  (303) 
1

>  <reference_id>  (303) 
99

>  <inspiration_ids>  (303) 
[99, 68]

>  <energy_score>  (303) 
128.00152774313233

>  <distance_score>  (303) 
16.000163282238514

>  <path>  (303) 
/opt/xchem-fragalysis-2/maxwin/BulkDock/SCRATCH/511025/C46856-P99/C46856-P99.minimised.mol

>  <scratch_subdir>  (303) 
/opt/xchem-fragalysis-2/maxwin/BulkDock/SCRATCH/511025/C46856-P99

>  <fragmenstein_runtime>  (303) 
12.895884990692139

>  <fragmenstein_outcome>  (303) 
too moved

>  <fragmenstein_mode>  (303) 
expansion

>  <fragmenstein_error>  (303) 


$$$$
C46856-P68
     RDKit          3D

 28 30  0  0  0  0  0  0  0  0999 V2000
   -9.4200  -23.6705   12.3930 O   0  0  0  0  0  0  0  0  0  0  0  0
   -8.3026  -24.0544   12.1751 C   0  0  0  0  0  0  0  0  0  0  0  0
   -7.2925  -23.1811   11.3337 C   0  0  0  0  0  0  0  0  0  0  0  0
   -7.7213  -22.0033   10.5051 N   0  0  0  0  0  0  0  0  0  0  0  0
   -6.8621  -20.9785   10.1092 C   0  0  0  0  0  0  0  0  0  0  0  0
   -7.3848  -20.4147    8.9651 C   0  0  0  0  0  0  0  0  0  0  0  0
   -6.7474  -19.2438    7.9082 Cl  0  0  0  0  0  0  0  0  0  0  0  0
   -8.6063  -21.0770    8.7933 C   0  0  0  0  0  0  0  0  0  0  0  0
   -8.8014  -22.0563    9.6893 N   0  0  0  0  0  0  0  0  0  0  0  0
   -7.5868  -25.2921   12.6413 N   0  0  0  0  0  0  0  0  0  0  0  0
   -8.0563  -26.4239   13.4044 C   0  0  0  0  0  0  0  0  0  0  0  0
   -9.3638  -26.5123   13.9693 C   0  0  0  0  0  0  0  0  0  0  0  0
   -9.8888  -27.6686   14.6485 C   0  0  0  0  0  0  0  0  0  0  0  0
   -9.0317  -28.7948   14.7380 C   0  0  0  0  0  0  0  0  0  0  0  0
   -9.3156  -30.0217   15.2135 N   0  0  0  0  0  0  0  0  0  0  0  0
   -7.9668  -30.9921   15.1202 S   0  0  0  0  0  0  0  0  0  0  0  0
   -6.9370  -29.8170   14.4197 C   0  0  0  0  0  0  0  0  0  0  0  0
   -7.6673  -28.6662   14.2262 C   0  0  0  0  0  0  0  0  0  0  0  0
   -7.1491  -27.5158   13.5766 C   0  0  0  0  0  0  0  0  0  0  0  0
   -6.7869  -23.8353   10.6129 H   0  0  0  0  0  0  0  0  0  0  0  0
   -6.5524  -22.7801   12.0366 H   0  0  0  0  0  0  0  0  0  0  0  0
   -5.9231  -20.8201   10.6188 H   0  0  0  0  0  0  0  0  0  0  0  0
   -9.3499  -20.9262    8.0219 H   0  0  0  0  0  0  0  0  0  0  0  0
   -6.6777  -25.3389   12.1980 H   0  0  0  0  0  0  0  0  0  0  0  0
  -10.0385  -25.6612   13.8558 H   0  0  0  0  0  0  0  0  0  0  0  0
  -10.9051  -27.6910   15.0237 H   0  0  0  0  0  0  0  0  0  0  0  0
   -5.9100  -30.0398   14.1716 H   0  0  0  0  0  0  0  0  0  0  0  0
   -6.1377  -27.4855   13.1893 H   0  0  0  0  0  0  0  0  0  0  0  0
  1  2  2  0
  2  3  1  0
  3  4  1  0
  4  5  1  0
  5  6  2  0
  6  7  1  0
  6  8  1  0
  8  9  2  0
  2 10  1  0
 10 11  1  0
 11 12  1  0
 12 13  2  0
 13 14  1  0
 14 15  2  0
 15 16  1  0
 16 17  1  0
 17 18  2  0
 18 19  1  0
  9  4  1  0
 19 11  2  0
 18 14  1  0
  3 20  1  0
  3 21  1  0
  5 22  1  0
  8 23  1  0
 10 24  1  0
 12 25  1  0
 13 26  1  0
 17 27  1  0
 19 28  1  0
M  END
>  <Energy>  (304) 
51.445353916807399

>  <compound_id>  (304) 
46856

>  <target_id>  (304) 
1

>  <reference_id>  (304) 
68

>  <inspiration_ids>  (304) 
[99, 68]

>  <energy_score>  (304) 
-41.22351793059761

>  <distance_score>  (304) 
14.441384590009696

>  <path>  (304) 
/opt/xchem-fragalysis-2/maxwin/BulkDock/SCRATCH/511025/C46856-P68/C46856-P68.minimised.mol

>  <scratch_subdir>  (304) 
/opt/xchem-fragalysis-2/maxwin/BulkDock/SCRATCH/511025/C46856-P68

>  <fragmenstein_runtime>  (304) 
14.862484693527222

>  <fragmenstein_outcome>  (304) 
too moved

>  <fragmenstein_mode>  (304) 
expansion

>  <fragmenstein_error>  (304) 


$$$$
C46857-P99
     RDKit          3D

 29 31  0  0  0  0  0  0  0  0999 V2000
   -9.7703  -20.5071   15.0348 O   0  0  0  0  0  0  0  0  0  0  0  0
  -10.1230  -20.3849   13.9050 C   0  0  0  0  0  0  0  0  0  0  0  0
  -10.6757  -18.4985   13.5845 C   0  0  0  0  0  0  0  0  0  0  0  0
  -10.4265  -16.7261   12.9058 N   0  0  0  0  0  0  0  0  0  0  0  0
  -11.1945  -15.8020   11.6600 C   0  0  0  0  0  0  0  0  0  0  0  0
  -11.0787  -14.4551   11.8617 C   0  0  0  0  0  0  0  0  0  0  0  0
  -11.5096  -13.1144   10.9078 Cl  0  0  0  0  0  0  0  0  0  0  0  0
  -10.4551  -14.4141   13.0767 C   0  0  0  0  0  0  0  0  0  0  0  0
  -10.1442  -15.5891   13.6233 N   0  0  0  0  0  0  0  0  0  0  0  0
  -10.1966  -21.5795   12.8544 N   0  0  0  0  0  0  0  0  0  0  0  0
   -9.9819  -23.0017   12.9962 C   0  0  0  0  0  0  0  0  0  0  0  0
  -10.3304  -23.7690   11.7863 C   0  0  0  0  0  0  0  0  0  0  0  0
  -10.5219  -25.0999   11.7945 C   0  0  0  0  0  0  0  0  0  0  0  0
  -10.3205  -25.8438   12.9407 N   0  0  0  0  0  0  0  0  0  0  0  0
  -10.5215  -27.1793   13.0784 N   0  0  0  0  0  0  0  0  0  0  0  0
  -10.0590  -27.4687   14.2897 C   0  0  0  0  0  0  0  0  0  0  0  0
   -9.5767  -26.3278   14.9445 C   0  0  0  0  0  0  0  0  0  0  0  0
   -9.8203  -25.2505   14.0947 C   0  0  0  0  0  0  0  0  0  0  0  0
   -9.6538  -23.7693   14.0791 C   0  0  0  0  0  0  0  0  0  0  0  0
  -11.6596  -18.3568   13.9233 H   0  0  0  0  0  0  0  0  0  0  0  0
  -10.3165  -18.2086   14.5424 H   0  0  0  0  0  0  0  0  0  0  0  0
  -11.6305  -16.4226   10.8789 H   0  0  0  0  0  0  0  0  0  0  0  0
  -10.1654  -13.5252   13.6235 H   0  0  0  0  0  0  0  0  0  0  0  0
  -10.4252  -21.2235   12.0127 H   0  0  0  0  0  0  0  0  0  0  0  0
  -10.4160  -23.2406   10.8442 H   0  0  0  0  0  0  0  0  0  0  0  0
  -10.8045  -25.6591   10.9125 H   0  0  0  0  0  0  0  0  0  0  0  0
  -10.0700  -28.4962   14.6297 H   0  0  0  0  0  0  0  0  0  0  0  0
   -9.0908  -26.3487   15.9033 H   0  0  0  0  0  0  0  0  0  0  0  0
   -9.3227  -23.2745   14.9865 H   0  0  0  0  0  0  0  0  0  0  0  0
  1  2  2  0
  2  3  1  0
  3  4  1  0
  4  5  1  0
  5  6  2  0
  6  7  1  0
  6  8  1  0
  8  9  2  0
  2 10  1  0
 10 11  1  0
 11 12  1  0
 12 13  2  0
 13 14  1  0
 14 15  1  0
 15 16  2  0
 16 17  1  0
 17 18  2  0
 18 19  1  0
  9  4  1  0
 19 11  2  0
 18 14  1  0
  3 20  1  0
  3 21  1  0
  5 22  1  0
  8 23  1  0
 10 24  1  0
 12 25  1  0
 13 26  1  0
 16 27  1  0
 17 28  1  0
 19 29  1  0
M  END
>  <Energy>  (305) 
297.69659597265974

>  <compound_id>  (305) 
46857

>  <target_id>  (305) 
1

>  <reference_id>  (305) 
99

>  <inspiration_ids>  (305) 
[99, 68]

>  <energy_score>  (305) 
227.96134491118295

>  <distance_score>  (305) 
14.466476239062503

>  <path>  (305) 
/opt/xchem-fragalysis-2/maxwin/BulkDock/SCRATCH/511025/C46857-P99/C46857-P99.minimised.mol

>  <scratch_subdir>  (305) 
/opt/xchem-fragalysis-2/maxwin/BulkDock/SCRATCH/511025/C46857-P99

>  <fragmenstein_runtime>  (305) 
9.692826509475708

>  <fragmenstein_outcome>  (305) 
too moved

>  <fragmenstein_mode>  (305) 
expansion

>  <fragmenstein_error>  (305) 


$$$$
C46857-P68
     RDKit          3D

 29 31  0  0  0  0  0  0  0  0999 V2000
  -11.2423  -18.0137   14.0373 O   0  0  0  0  0  0  0  0  0  0  0  0
  -10.3396  -17.5639   13.4020 C   0  0  0  0  0  0  0  0  0  0  0  0
  -10.4130  -15.8001   13.4148 C   0  0  0  0  0  0  0  0  0  0  0  0
  -10.6975  -14.6023   12.4911 N   0  0  0  0  0  0  0  0  0  0  0  0
  -11.4520  -14.3680   11.3575 C   0  0  0  0  0  0  0  0  0  0  0  0
  -11.2796  -13.0272   11.0260 C   0  0  0  0  0  0  0  0  0  0  0  0
  -11.7816  -12.1151    9.6810 Cl  0  0  0  0  0  0  0  0  0  0  0  0
  -10.5325  -12.4853   12.0748 C   0  0  0  0  0  0  0  0  0  0  0  0
  -10.2225  -13.4031   12.9893 N   0  0  0  0  0  0  0  0  0  0  0  0
   -9.3467  -18.2285   12.6064 N   0  0  0  0  0  0  0  0  0  0  0  0
   -9.1689  -19.8391   12.1954 C   0  0  0  0  0  0  0  0  0  0  0  0
   -7.7283  -20.4298   12.1327 C   0  0  0  0  0  0  0  0  0  0  0  0
   -7.4725  -21.6777   12.6907 C   0  0  0  0  0  0  0  0  0  0  0  0
   -8.5341  -22.6242   12.9059 N   0  0  0  0  0  0  0  0  0  0  0  0
   -8.5594  -23.9553   12.4964 N   0  0  0  0  0  0  0  0  0  0  0  0
   -9.7396  -24.4110   12.9291 C   0  0  0  0  0  0  0  0  0  0  0  0
  -10.5963  -23.3558   13.2465 C   0  0  0  0  0  0  0  0  0  0  0  0
   -9.8461  -22.2268   12.9872 C   0  0  0  0  0  0  0  0  0  0  0  0
  -10.0767  -20.8282   12.8103 C   0  0  0  0  0  0  0  0  0  0  0  0
   -9.6392  -15.3909   14.0349 H   0  0  0  0  0  0  0  0  0  0  0  0
  -11.3350  -15.6394   13.9887 H   0  0  0  0  0  0  0  0  0  0  0  0
  -11.9730  -15.1673   10.8509 H   0  0  0  0  0  0  0  0  0  0  0  0
  -10.1975  -11.4653   12.2140 H   0  0  0  0  0  0  0  0  0  0  0  0
   -8.6986  -17.5623   12.2896 H   0  0  0  0  0  0  0  0  0  0  0  0
   -6.9109  -19.8227   11.7573 H   0  0  0  0  0  0  0  0  0  0  0  0
   -6.4877  -22.0978   12.5798 H   0  0  0  0  0  0  0  0  0  0  0  0
   -9.9428  -25.4729   12.8961 H   0  0  0  0  0  0  0  0  0  0  0  0
  -11.6512  -23.4152   13.4568 H   0  0  0  0  0  0  0  0  0  0  0  0
  -10.8955  -20.4625   13.4289 H   0  0  0  0  0  0  0  0  0  0  0  0
  1  2  2  0
  2  3  1  0
  3  4  1  0
  4  5  1  0
  5  6  2  0
  6  7  1  0
  6  8  1  0
  8  9  2  0
  2 10  1  0
 10 11  1  0
 11 12  1  0
 12 13  2  0
 13 14  1  0
 14 15  1  0
 15 16  2  0
 16 17  1  0
 17 18  2  0
 18 19  1  0
  9  4  1  0
 19 11  2  0
 18 14  1  0
  3 20  1  0
  3 21  1  0
  5 22  1  0
  8 23  1  0
 10 24  1  0
 12 25  1  0
 13 26  1  0
 16 27  1  0
 17 28  1  0
 19 29  1  0
M  END
>  <Energy>  (306) 
170.0083849027593

>  <compound_id>  (306) 
46857

>  <target_id>  (306) 
1

>  <reference_id>  (306) 
68

>  <inspiration_ids>  (306) 
[99, 68]

>  <energy_score>  (306) 
100.27313384127638

>  <distance_score>  (306) 
15.613314024543724

>  <path>  (306) 
/opt/xchem-fragalysis-2/maxwin/BulkDock/SCRATCH/511025/C46857-P68/C46857-P68.minimised.mol

>  <scratch_subdir>  (306) 
/opt/xchem-fragalysis-2/maxwin/BulkDock/SCRATCH/511025/C46857-P68

>  <fragmenstein_runtime>  (306) 
18.62420105934143

>  <fragmenstein_outcome>  (306) 
too moved

>  <fragmenstein_mode>  (306) 
expansion

>  <fragmenstein_error>  (306) 


$$$$
C46858-P99
     RDKit          3D

 31 33  0  0  0  0  0  0  0  0999 V2000
   -4.9805  -16.3765   14.1294 O   0  0  0  0  0  0  0  0  0  0  0  0
   -5.6296  -16.1451   13.1645 C   0  0  0  0  0  0  0  0  0  0  0  0
   -5.8202  -14.0618   12.9309 C   0  0  0  0  0  0  0  0  0  0  0  0
   -6.9425  -12.5138   12.0632 C   0  0  0  0  0  0  0  0  0  0  0  0
   -7.4959  -10.7338   11.7012 N   0  0  0  0  0  0  0  0  0  0  0  0
   -8.7648   -9.5974   12.0908 C   0  0  0  0  0  0  0  0  0  0  0  0
   -9.1602   -8.2527   11.0538 C   0  0  0  0  0  0  0  0  0  0  0  0
  -10.0347   -5.7142   11.2991 Cl  0  0  0  0  0  0  0  0  0  0  0  0
   -7.8885   -8.9805   10.1480 C   0  0  0  0  0  0  0  0  0  0  0  0
   -7.2321  -10.1830   10.4041 N   0  0  0  0  0  0  0  0  0  0  0  0
   -6.1256  -17.6188   12.1175 N   0  0  0  0  0  0  0  0  0  0  0  0
   -5.7132  -19.3131   12.2151 C   0  0  0  0  0  0  0  0  0  0  0  0
   -6.6916  -20.3359   11.9800 C   0  0  0  0  0  0  0  0  0  0  0  0
   -6.5626  -21.7780   12.3416 C   0  0  0  0  0  0  0  0  0  0  0  0
   -5.2878  -22.3374   12.5280 C   0  0  0  0  0  0  0  0  0  0  0  0
   -4.9744  -23.5893   12.8915 N   0  0  0  0  0  0  0  0  0  0  0  0
   -3.3417  -23.6838   13.1556 S   0  0  0  0  0  0  0  0  0  0  0  0
   -2.9995  -22.0382   12.7614 C   0  0  0  0  0  0  0  0  0  0  0  0
   -4.1777  -21.4012   12.4341 C   0  0  0  0  0  0  0  0  0  0  0  0
   -4.3580  -19.9394   12.2805 C   0  0  0  0  0  0  0  0  0  0  0  0
   -6.7052  -13.9337   13.5944 H   0  0  0  0  0  0  0  0  0  0  0  0
   -4.7387  -14.0102   13.1687 H   0  0  0  0  0  0  0  0  0  0  0  0
   -6.9204  -12.7374   10.9859 H   0  0  0  0  0  0  0  0  0  0  0  0
   -7.9599  -12.7149   12.4433 H   0  0  0  0  0  0  0  0  0  0  0  0
   -9.1022   -9.8096   13.0949 H   0  0  0  0  0  0  0  0  0  0  0  0
   -7.5263   -8.4811    9.2563 H   0  0  0  0  0  0  0  0  0  0  0  0
   -6.5866  -17.2827   11.2991 H   0  0  0  0  0  0  0  0  0  0  0  0
   -7.6961  -20.0222   11.7008 H   0  0  0  0  0  0  0  0  0  0  0  0
   -7.4273  -22.3845   12.6025 H   0  0  0  0  0  0  0  0  0  0  0  0
   -1.9993  -21.6400   12.8454 H   0  0  0  0  0  0  0  0  0  0  0  0
   -3.4546  -19.3601   12.3737 H   0  0  0  0  0  0  0  0  0  0  0  0
  1  2  2  0
  2  3  1  0
  3  4  1  0
  4  5  1  0
  5  6  1  0
  6  7  2  0
  7  8  1  0
  7  9  1  0
  9 10  2  0
  2 11  1  0
 11 12  1  0
 12 13  1  0
 13 14  2  0
 14 15  1  0
 15 16  2  0
 16 17  1  0
 17 18  1  0
 18 19  2  0
 19 20  1  0
 10  5  1  0
 20 12  2  0
 19 15  1  0
  3 21  1  0
  3 22  1  0
  4 23  1  0
  4 24  1  0
  6 25  1  0
  9 26  1  0
 11 27  1  0
 13 28  1  0
 14 29  1  0
 18 30  1  0
 20 31  1  0
M  END
>  <Energy>  (307) 
1031.6921364048462

>  <compound_id>  (307) 
46858

>  <target_id>  (307) 
1

>  <reference_id>  (307) 
99

>  <inspiration_ids>  (307) 
[99, 68]

>  <energy_score>  (307) 
965.363722219387

>  <distance_score>  (307) 
15.987658149915275

>  <path>  (307) 
/opt/xchem-fragalysis-2/maxwin/BulkDock/SCRATCH/511025/C46858-P99/C46858-P99.minimised.mol

>  <scratch_subdir>  (307) 
/opt/xchem-fragalysis-2/maxwin/BulkDock/SCRATCH/511025/C46858-P99

>  <fragmenstein_runtime>  (307) 
19.09797167778015

>  <fragmenstein_outcome>  (307) 
too moved

>  <fragmenstein_mode>  (307) 
expansion

>  <fragmenstein_error>  (307) 


$$$$
C46858-P68
     RDKit          3D

 31 33  0  0  0  0  0  0  0  0999 V2000
   -7.7299  -16.5887   17.1404 O   0  0  0  0  0  0  0  0  0  0  0  0
   -6.6977  -16.0222   16.8108 C   0  0  0  0  0  0  0  0  0  0  0  0
   -7.0337  -14.7679   15.9599 C   0  0  0  0  0  0  0  0  0  0  0  0
   -8.4761  -14.2883   14.6519 C   0  0  0  0  0  0  0  0  0  0  0  0
   -8.6755  -13.0763   13.4693 N   0  0  0  0  0  0  0  0  0  0  0  0
   -8.4745  -11.6894   13.4583 C   0  0  0  0  0  0  0  0  0  0  0  0
   -8.5028  -11.3160   12.1388 C   0  0  0  0  0  0  0  0  0  0  0  0
   -7.8732   -9.9744   11.3433 Cl  0  0  0  0  0  0  0  0  0  0  0  0
   -9.3845  -12.2557   11.6285 C   0  0  0  0  0  0  0  0  0  0  0  0
   -9.6274  -13.2514   12.5048 N   0  0  0  0  0  0  0  0  0  0  0  0
   -5.0470  -16.4199   17.2990 N   0  0  0  0  0  0  0  0  0  0  0  0
   -4.4889  -17.6563   18.1848 C   0  0  0  0  0  0  0  0  0  0  0  0
   -5.4334  -18.2425   19.1498 C   0  0  0  0  0  0  0  0  0  0  0  0
   -5.4239  -19.5433   19.7640 C   0  0  0  0  0  0  0  0  0  0  0  0
   -4.3970  -20.3860   19.3179 C   0  0  0  0  0  0  0  0  0  0  0  0
   -4.2189  -21.6772   19.6386 N   0  0  0  0  0  0  0  0  0  0  0  0
   -2.9365  -22.2945   18.7985 S   0  0  0  0  0  0  0  0  0  0  0  0
   -2.5111  -20.8257   18.0041 C   0  0  0  0  0  0  0  0  0  0  0  0
   -3.3948  -19.8319   18.3751 C   0  0  0  0  0  0  0  0  0  0  0  0
   -3.3800  -18.4728   17.8406 C   0  0  0  0  0  0  0  0  0  0  0  0
   -7.2930  -14.1584   16.8941 H   0  0  0  0  0  0  0  0  0  0  0  0
   -6.3249  -14.0825   16.3161 H   0  0  0  0  0  0  0  0  0  0  0  0
   -9.0612  -13.5459   15.1414 H   0  0  0  0  0  0  0  0  0  0  0  0
   -9.2416  -15.0024   14.3811 H   0  0  0  0  0  0  0  0  0  0  0  0
   -8.3652  -11.0901   14.3395 H   0  0  0  0  0  0  0  0  0  0  0  0
   -9.8727  -12.2750   10.6646 H   0  0  0  0  0  0  0  0  0  0  0  0
   -4.4017  -15.8383   16.8086 H   0  0  0  0  0  0  0  0  0  0  0  0
   -6.3116  -17.6544   19.4021 H   0  0  0  0  0  0  0  0  0  0  0  0
   -6.2047  -19.8729   20.4373 H   0  0  0  0  0  0  0  0  0  0  0  0
   -1.6761  -20.7916   17.3195 H   0  0  0  0  0  0  0  0  0  0  0  0
   -2.6418  -18.1574   17.1141 H   0  0  0  0  0  0  0  0  0  0  0  0
  1  2  2  0
  2  3  1  0
  3  4  1  0
  4  5  1  0
  5  6  1  0
  6  7  2  0
  7  8  1  0
  7  9  1  0
  9 10  2  0
  2 11  1  0
 11 12  1  0
 12 13  1  0
 13 14  2  0
 14 15  1  0
 15 16  2  0
 16 17  1  0
 17 18  1  0
 18 19  2  0
 19 20  1  0
 10  5  1  0
 20 12  2  0
 19 15  1  0
  3 21  1  0
  3 22  1  0
  4 23  1  0
  4 24  1  0
  6 25  1  0
  9 26  1  0
 11 27  1  0
 13 28  1  0
 14 29  1  0
 18 30  1  0
 20 31  1  0
M  END
>  <Energy>  (308) 
267.35865690224796

>  <compound_id>  (308) 
46858

>  <target_id>  (308) 
1

>  <reference_id>  (308) 
68

>  <inspiration_ids>  (308) 
[99, 68]

>  <energy_score>  (308) 
201.03024271677975

>  <distance_score>  (308) 
15.75484369366813

>  <path>  (308) 
/opt/xchem-fragalysis-2/maxwin/BulkDock/SCRATCH/511025/C46858-P68/C46858-P68.minimised.mol

>  <scratch_subdir>  (308) 
/opt/xchem-fragalysis-2/maxwin/BulkDock/SCRATCH/511025/C46858-P68

>  <fragmenstein_runtime>  (308) 
14.326781272888184

>  <fragmenstein_outcome>  (308) 
too moved

>  <fragmenstein_mode>  (308) 
expansion

>  <fragmenstein_error>  (308) 


$$$$
C46859-P99
     RDKit          3D

 34 36  0  0  0  0  0  0  0  0999 V2000
   -7.5699  -16.2331   16.6184 O   0  0  0  0  0  0  0  0  0  0  0  0
   -6.6577  -15.7225   16.0353 C   0  0  0  0  0  0  0  0  0  0  0  0
   -7.4027  -14.5166   14.4839 C   0  0  0  0  0  0  0  0  0  0  0  0
   -6.7992  -12.9325   13.1596 C   0  0  0  0  0  0  0  0  0  0  0  0
   -5.6802  -11.3049   13.2131 N   0  0  0  0  0  0  0  0  0  0  0  0
   -4.2589  -11.0401   12.7250 C   0  0  0  0  0  0  0  0  0  0  0  0
   -4.0179   -9.6828   12.6584 C   0  0  0  0  0  0  0  0  0  0  0  0
   -2.8385   -8.8290   11.7884 Cl  0  0  0  0  0  0  0  0  0  0  0  0
   -4.9113   -9.0977   13.5522 C   0  0  0  0  0  0  0  0  0  0  0  0
   -5.7751   -9.9598   14.1051 N   0  0  0  0  0  0  0  0  0  0  0  0
   -4.8976  -16.1703   16.5500 N   0  0  0  0  0  0  0  0  0  0  0  0
   -4.2917  -17.3205   17.6921 C   0  0  0  0  0  0  0  0  0  0  0  0
   -3.0687  -17.9427   17.4316 C   0  0  0  0  0  0  0  0  0  0  0  0
   -2.7612  -19.2661   17.9439 C   0  0  0  0  0  0  0  0  0  0  0  0
   -3.6095  -20.0569   18.7413 C   0  0  0  0  0  0  0  0  0  0  0  0
   -3.3006  -21.3444   19.0799 N   0  0  0  0  0  0  0  0  0  0  0  0
   -4.1982  -22.0734   19.7856 C   0  0  0  0  0  0  0  0  0  0  0  0
   -5.4019  -21.5603   20.2144 C   0  0  0  0  0  0  0  0  0  0  0  0
   -5.6921  -20.2272   19.8918 C   0  0  0  0  0  0  0  0  0  0  0  0
   -4.8041  -19.4412   19.1211 C   0  0  0  0  0  0  0  0  0  0  0  0
   -5.1092  -18.1019   18.6265 C   0  0  0  0  0  0  0  0  0  0  0  0
   -7.4157  -15.4949   13.9866 H   0  0  0  0  0  0  0  0  0  0  0  0
   -8.4848  -14.3296   14.5727 H   0  0  0  0  0  0  0  0  0  0  0  0
   -7.7028  -12.3894   12.8330 H   0  0  0  0  0  0  0  0  0  0  0  0
   -6.1406  -13.1807   12.3358 H   0  0  0  0  0  0  0  0  0  0  0  0
   -3.6404  -11.8897   12.5340 H   0  0  0  0  0  0  0  0  0  0  0  0
   -4.9670   -8.0619   13.8591 H   0  0  0  0  0  0  0  0  0  0  0  0
   -4.2574  -15.7375   15.9195 H   0  0  0  0  0  0  0  0  0  0  0  0
   -2.3661  -17.4927   16.7349 H   0  0  0  0  0  0  0  0  0  0  0  0
   -1.8131  -19.7142   17.6409 H   0  0  0  0  0  0  0  0  0  0  0  0
   -3.9052  -23.0963   19.9984 H   0  0  0  0  0  0  0  0  0  0  0  0
   -6.1025  -22.1648   20.7781 H   0  0  0  0  0  0  0  0  0  0  0  0
   -6.6441  -19.8102   20.2114 H   0  0  0  0  0  0  0  0  0  0  0  0
   -6.1192  -17.7577   18.8413 H   0  0  0  0  0  0  0  0  0  0  0  0
  1  2  2  0
  2  3  1  0
  3  4  1  0
  4  5  1  0
  5  6  1  0
  6  7  2  0
  7  8  1  0
  7  9  1  0
  9 10  2  0
  2 11  1  0
 11 12  1  0
 12 13  2  0
 13 14  1  0
 14 15  2  0
 15 16  1  0
 16 17  2  0
 17 18  1  0
 18 19  2  0
 19 20  1  0
 20 21  2  0
 10  5  1  0
 21 12  1  0
 20 15  1  0
  3 22  1  0
  3 23  1  0
  4 24  1  0
  4 25  1  0
  6 26  1  0
  9 27  1  0
 11 28  1  0
 13 29  1  0
 14 30  1  0
 17 31  1  0
 18 32  1  0
 19 33  1  0
 21 34  1  0
M  END
>  <Energy>  (309) 
514.93022455128516

>  <compound_id>  (309) 
46859

>  <target_id>  (309) 
1

>  <reference_id>  (309) 
99

>  <inspiration_ids>  (309) 
[99, 68]

>  <energy_score>  (309) 
468.99038933770703

>  <distance_score>  (309) 
15.937388126973632

>  <path>  (309) 
/opt/xchem-fragalysis-2/maxwin/BulkDock/SCRATCH/511025/C46859-P99/C46859-P99.minimised.mol

>  <scratch_subdir>  (309) 
/opt/xchem-fragalysis-2/maxwin/BulkDock/SCRATCH/511025/C46859-P99

>  <fragmenstein_runtime>  (309) 
21.384223461151123

>  <fragmenstein_outcome>  (309) 
too moved

>  <fragmenstein_mode>  (309) 
expansion

>  <fragmenstein_error>  (309) 


$$$$
C46859-P68
     RDKit          3D

 34 36  0  0  0  0  0  0  0  0999 V2000
   -8.8615  -19.8492   17.9156 O   0  0  0  0  0  0  0  0  0  0  0  0
   -7.7855  -19.3445   18.1155 C   0  0  0  0  0  0  0  0  0  0  0  0
   -7.7615  -17.4553   17.3819 C   0  0  0  0  0  0  0  0  0  0  0  0
   -7.3736  -15.9447   16.1308 C   0  0  0  0  0  0  0  0  0  0  0  0
   -8.1080  -14.9058   14.8072 N   0  0  0  0  0  0  0  0  0  0  0  0
   -9.3773  -13.9375   14.4528 C   0  0  0  0  0  0  0  0  0  0  0  0
   -9.0157  -12.7713   13.7294 C   0  0  0  0  0  0  0  0  0  0  0  0
   -9.0513  -11.0318   13.7786 Cl  0  0  0  0  0  0  0  0  0  0  0  0
   -7.8392  -13.1647   13.2317 C   0  0  0  0  0  0  0  0  0  0  0  0
   -7.2976  -14.2609   13.9184 N   0  0  0  0  0  0  0  0  0  0  0  0
   -6.5966  -19.8830   18.8892 N   0  0  0  0  0  0  0  0  0  0  0  0
   -6.3795  -21.1817   19.5187 C   0  0  0  0  0  0  0  0  0  0  0  0
   -7.4355  -22.1233   19.4842 C   0  0  0  0  0  0  0  0  0  0  0  0
   -7.3449  -23.4450   19.9993 C   0  0  0  0  0  0  0  0  0  0  0  0
   -6.1829  -23.9355   20.5613 C   0  0  0  0  0  0  0  0  0  0  0  0
   -6.1283  -25.2166   21.0133 N   0  0  0  0  0  0  0  0  0  0  0  0
   -4.9588  -25.6818   21.4921 C   0  0  0  0  0  0  0  0  0  0  0  0
   -3.8281  -24.8988   21.5725 C   0  0  0  0  0  0  0  0  0  0  0  0
   -3.9032  -23.5656   21.1395 C   0  0  0  0  0  0  0  0  0  0  0  0
   -5.0945  -23.0364   20.6075 C   0  0  0  0  0  0  0  0  0  0  0  0
   -5.2091  -21.6683   20.1067 C   0  0  0  0  0  0  0  0  0  0  0  0
   -7.0049  -17.2205   18.1387 H   0  0  0  0  0  0  0  0  0  0  0  0
   -8.6309  -16.9849   17.7206 H   0  0  0  0  0  0  0  0  0  0  0  0
   -7.0026  -15.1341   16.7792 H   0  0  0  0  0  0  0  0  0  0  0  0
   -6.4414  -16.0690   15.6089 H   0  0  0  0  0  0  0  0  0  0  0  0
  -10.1177  -14.6325   14.0713 H   0  0  0  0  0  0  0  0  0  0  0  0
   -7.1481  -12.6183   12.6066 H   0  0  0  0  0  0  0  0  0  0  0  0
   -5.8803  -19.1699   18.9327 H   0  0  0  0  0  0  0  0  0  0  0  0
   -8.3869  -21.8570   19.0292 H   0  0  0  0  0  0  0  0  0  0  0  0
   -8.2156  -24.0959   19.9275 H   0  0  0  0  0  0  0  0  0  0  0  0
   -4.9600  -26.7179   21.8151 H   0  0  0  0  0  0  0  0  0  0  0  0
   -2.9015  -25.3031   21.9645 H   0  0  0  0  0  0  0  0  0  0  0  0
   -3.0130  -22.9441   21.2022 H   0  0  0  0  0  0  0  0  0  0  0  0
   -4.3339  -21.0253   20.1579 H   0  0  0  0  0  0  0  0  0  0  0  0
  1  2  2  0
  2  3  1  0
  3  4  1  0
  4  5  1  0
  5  6  1  0
  6  7  2  0
  7  8  1  0
  7  9  1  0
  9 10  2  0
  2 11  1  0
 11 12  1  0
 12 13  2  0
 13 14  1  0
 14 15  2  0
 15 16  1  0
 16 17  2  0
 17 18  1  0
 18 19  2  0
 19 20  1  0
 20 21  2  0
 10  5  1  0
 21 12  1  0
 20 15  1  0
  3 22  1  0
  3 23  1  0
  4 24  1  0
  4 25  1  0
  6 26  1  0
  9 27  1  0
 11 28  1  0
 13 29  1  0
 14 30  1  0
 17 31  1  0
 18 32  1  0
 19 33  1  0
 21 34  1  0
M  END
>  <Energy>  (310) 
363.44580035552769

>  <compound_id>  (310) 
46859

>  <target_id>  (310) 
1

>  <reference_id>  (310) 
68

>  <inspiration_ids>  (310) 
[99, 68]

>  <energy_score>  (310) 
317.505965141963

>  <distance_score>  (310) 
13.353382253852939

>  <path>  (310) 
/opt/xchem-fragalysis-2/maxwin/BulkDock/SCRATCH/511025/C46859-P68/C46859-P68.minimised.mol

>  <scratch_subdir>  (310) 
/opt/xchem-fragalysis-2/maxwin/BulkDock/SCRATCH/511025/C46859-P68

>  <fragmenstein_runtime>  (310) 
15.600706338882446

>  <fragmenstein_outcome>  (310) 
too moved

>  <fragmenstein_mode>  (310) 
expansion

>  <fragmenstein_error>  (310) 


$$$$
C46861-P99
     RDKit          3D

 35 37  0  0  0  0  0  0  0  0999 V2000
   -9.0183  -22.4690   11.4913 O   0  0  0  0  0  0  0  0  0  0  0  0
   -8.0663  -21.7157   11.5244 C   0  0  0  0  0  0  0  0  0  0  0  0
   -8.0041  -20.2015   11.7149 N   0  0  0  0  0  0  0  0  0  0  0  0
   -9.0910  -19.2143   12.0265 C   0  0  0  0  0  0  0  0  0  0  0  0
   -9.8249  -20.1911   12.5974 N   0  0  0  0  0  0  0  0  0  0  0  0
  -10.6031  -19.7239   13.5059 N   0  0  0  0  0  0  0  0  0  0  0  0
  -10.6049  -18.3600   13.7094 C   0  0  0  0  0  0  0  0  0  0  0  0
   -9.5513  -17.7166   12.9539 C   0  0  0  0  0  0  0  0  0  0  0  0
  -10.2299  -15.9398   12.9470 Cl  0  0  0  0  0  0  0  0  0  0  0  0
   -6.7449  -22.5286   11.4703 C   0  0  0  0  0  0  0  0  0  0  0  0
   -6.6890  -23.3456   10.3074 O   0  0  0  0  0  0  0  0  0  0  0  0
   -6.6024  -23.5027   12.8160 C   0  0  0  0  0  0  0  0  0  0  0  0
   -7.4733  -24.6893   13.3079 C   0  0  0  0  0  0  0  0  0  0  0  0
   -7.5922  -25.8988   12.6167 C   0  0  0  0  0  0  0  0  0  0  0  0
   -8.3518  -26.9811   13.1362 C   0  0  0  0  0  0  0  0  0  0  0  0
   -9.0396  -26.9073   14.3431 C   0  0  0  0  0  0  0  0  0  0  0  0
   -9.9044  -27.8796   14.7145 N   0  0  0  0  0  0  0  0  0  0  0  0
  -10.6548  -27.6513   15.8162 C   0  0  0  0  0  0  0  0  0  0  0  0
  -10.4612  -26.5914   16.6759 C   0  0  0  0  0  0  0  0  0  0  0  0
   -9.5162  -25.6387   16.3207 C   0  0  0  0  0  0  0  0  0  0  0  0
   -8.8481  -25.7379   15.0986 C   0  0  0  0  0  0  0  0  0  0  0  0
   -8.0661  -24.6636   14.5917 C   0  0  0  0  0  0  0  0  0  0  0  0
   -7.0385  -19.9120   11.7719 H   0  0  0  0  0  0  0  0  0  0  0  0
  -11.4180  -20.2920   13.5640 H   0  0  0  0  0  0  0  0  0  0  0  0
  -11.4876  -18.0406   14.1792 H   0  0  0  0  0  0  0  0  0  0  0  0
   -5.8929  -21.8418   11.4572 H   0  0  0  0  0  0  0  0  0  0  0  0
   -7.5455  -23.8211   10.3017 H   0  0  0  0  0  0  0  0  0  0  0  0
   -5.5881  -23.9216   12.7454 H   0  0  0  0  0  0  0  0  0  0  0  0
   -6.5783  -22.8060   13.6554 H   0  0  0  0  0  0  0  0  0  0  0  0
   -7.1030  -26.0228   11.6523 H   0  0  0  0  0  0  0  0  0  0  0  0
   -8.4529  -27.8836   12.5375 H   0  0  0  0  0  0  0  0  0  0  0  0
  -11.4309  -28.3853   16.0142 H   0  0  0  0  0  0  0  0  0  0  0  0
  -11.0460  -26.4904   17.5850 H   0  0  0  0  0  0  0  0  0  0  0  0
   -9.3460  -24.7863   16.9703 H   0  0  0  0  0  0  0  0  0  0  0  0
   -7.9689  -23.7621   15.1973 H   0  0  0  0  0  0  0  0  0  0  0  0
  1  2  2  0
  2  3  1  0
  3  4  1  0
  4  5  2  0
  5  6  1  0
  6  7  1  0
  7  8  2  0
  8  9  1  0
  2 10  1  0
 10 11  1  0
 10 12  1  0
 12 13  1  0
 13 14  2  0
 14 15  1  0
 15 16  2  0
 16 17  1  0
 17 18  2  0
 18 19  1  0
 19 20  2  0
 20 21  1  0
 21 22  2  0
  8  4  1  0
 22 13  1  0
 21 16  1  0
  3 23  1  0
  6 24  1  0
  7 25  1  0
 10 26  1  0
 11 27  1  0
 12 28  1  0
 12 29  1  0
 14 30  1  0
 15 31  1  0
 18 32  1  0
 19 33  1  0
 20 34  1  0
 22 35  1  0
M  END
>  <Energy>  (311) 
262.05573849157815

>  <compound_id>  (311) 
46861

>  <target_id>  (311) 
1

>  <reference_id>  (311) 
99

>  <inspiration_ids>  (311) 
[99, 68]

>  <energy_score>  (311) 
173.21103368916806

>  <distance_score>  (311) 
14.857589649135289

>  <path>  (311) 
/opt/xchem-fragalysis-2/maxwin/BulkDock/SCRATCH/511025/C46861-P99/C46861-P99.minimised.mol

>  <scratch_subdir>  (311) 
/opt/xchem-fragalysis-2/maxwin/BulkDock/SCRATCH/511025/C46861-P99

>  <fragmenstein_runtime>  (311) 
12.074596643447876

>  <fragmenstein_outcome>  (311) 
too moved

>  <fragmenstein_mode>  (311) 
expansion

>  <fragmenstein_error>  (311) 


$$$$
C46861-P68
     RDKit          3D

 35 37  0  0  0  0  0  0  0  0999 V2000
   -9.4519  -24.5825   11.9887 O   0  0  0  0  0  0  0  0  0  0  0  0
   -8.4218  -24.1874   12.4687 C   0  0  0  0  0  0  0  0  0  0  0  0
   -7.5903  -23.0138   12.1312 N   0  0  0  0  0  0  0  0  0  0  0  0
   -7.7072  -22.0727   11.0976 C   0  0  0  0  0  0  0  0  0  0  0  0
   -8.6334  -22.1793   10.1314 N   0  0  0  0  0  0  0  0  0  0  0  0
   -8.3394  -21.2335    9.2261 N   0  0  0  0  0  0  0  0  0  0  0  0
   -7.2786  -20.4663    9.5650 C   0  0  0  0  0  0  0  0  0  0  0  0
   -6.9041  -20.9026   10.8151 C   0  0  0  0  0  0  0  0  0  0  0  0
   -5.6838  -20.1568   11.7134 Cl  0  0  0  0  0  0  0  0  0  0  0  0
   -7.7118  -25.0868   13.6037 C   0  0  0  0  0  0  0  0  0  0  0  0
   -7.0147  -24.2323   14.5193 O   0  0  0  0  0  0  0  0  0  0  0  0
   -8.6604  -26.1021   14.3934 C   0  0  0  0  0  0  0  0  0  0  0  0
   -8.1699  -27.5300   14.7049 C   0  0  0  0  0  0  0  0  0  0  0  0
   -9.0107  -28.6334   14.4714 C   0  0  0  0  0  0  0  0  0  0  0  0
   -8.5928  -29.9554   14.7335 C   0  0  0  0  0  0  0  0  0  0  0  0
   -7.3398  -30.2417   15.2539 C   0  0  0  0  0  0  0  0  0  0  0  0
   -6.9753  -31.5264   15.4585 N   0  0  0  0  0  0  0  0  0  0  0  0
   -5.7323  -31.7455   15.9377 C   0  0  0  0  0  0  0  0  0  0  0  0
   -4.8445  -30.7438   16.2724 C   0  0  0  0  0  0  0  0  0  0  0  0
   -5.2334  -29.4246   16.0680 C   0  0  0  0  0  0  0  0  0  0  0  0
   -6.4957  -29.1423   15.5329 C   0  0  0  0  0  0  0  0  0  0  0  0
   -6.9209  -27.8070   15.2746 C   0  0  0  0  0  0  0  0  0  0  0  0
   -6.8298  -22.9409   12.8006 H   0  0  0  0  0  0  0  0  0  0  0  0
   -8.9044  -21.1957    8.3836 H   0  0  0  0  0  0  0  0  0  0  0  0
   -6.9037  -19.6822    8.9249 H   0  0  0  0  0  0  0  0  0  0  0  0
   -6.9524  -25.6671   13.0655 H   0  0  0  0  0  0  0  0  0  0  0  0
   -7.6848  -23.8461   15.1154 H   0  0  0  0  0  0  0  0  0  0  0  0
   -8.9376  -25.6533   15.3561 H   0  0  0  0  0  0  0  0  0  0  0  0
   -9.5900  -26.2034   13.8213 H   0  0  0  0  0  0  0  0  0  0  0  0
  -10.0040  -28.4796   14.0519 H   0  0  0  0  0  0  0  0  0  0  0  0
   -9.2612  -30.7814   14.5036 H   0  0  0  0  0  0  0  0  0  0  0  0
   -5.4463  -32.7871   16.0287 H   0  0  0  0  0  0  0  0  0  0  0  0
   -3.8657  -30.9787   16.6740 H   0  0  0  0  0  0  0  0  0  0  0  0
   -4.5482  -28.6228   16.3268 H   0  0  0  0  0  0  0  0  0  0  0  0
   -6.2506  -26.9830   15.5139 H   0  0  0  0  0  0  0  0  0  0  0  0
  1  2  2  0
  2  3  1  0
  3  4  1  0
  4  5  2  0
  5  6  1  0
  6  7  1  0
  7  8  2  0
  8  9  1  0
  2 10  1  0
 10 11  1  0
 10 12  1  0
 12 13  1  0
 13 14  2  0
 14 15  1  0
 15 16  2  0
 16 17  1  0
 17 18  2  0
 18 19  1  0
 19 20  2  0
 20 21  1  0
 21 22  2  0
  8  4  1  0
 22 13  1  0
 21 16  1  0
  3 23  1  0
  6 24  1  0
  7 25  1  0
 10 26  1  0
 11 27  1  0
 12 28  1  0
 12 29  1  0
 14 30  1  0
 15 31  1  0
 18 32  1  0
 19 33  1  0
 20 34  1  0
 22 35  1  0
M  END
>  <Energy>  (312) 
64.64326702145911

>  <compound_id>  (312) 
46861

>  <target_id>  (312) 
1

>  <reference_id>  (312) 
68

>  <inspiration_ids>  (312) 
[99, 68]

>  <energy_score>  (312) 
-24.201437780955587

>  <distance_score>  (312) 
13.592180096127347

>  <path>  (312) 
/opt/xchem-fragalysis-2/maxwin/BulkDock/SCRATCH/511025/C46861-P68/C46861-P68.minimised.mol

>  <scratch_subdir>  (312) 
/opt/xchem-fragalysis-2/maxwin/BulkDock/SCRATCH/511025/C46861-P68

>  <fragmenstein_runtime>  (312) 
24.10280990600586

>  <fragmenstein_outcome>  (312) 
too moved

>  <fragmenstein_mode>  (312) 
expansion

>  <fragmenstein_error>  (312) 


$$$$
C46862-P99
     RDKit          3D

 33 35  0  0  0  0  0  0  0  0999 V2000
  -13.8784  -21.5999   15.7048 O   0  0  0  0  0  0  0  0  0  0  0  0
  -13.9515  -21.0009   14.6209 C   0  0  0  0  0  0  0  0  0  0  0  0
  -13.3935  -19.2137   14.3551 C   0  0  0  0  0  0  0  0  0  0  0  0
  -11.8115  -18.0056   14.3538 N   0  0  0  0  0  0  0  0  0  0  0  0
  -11.8734  -16.1476   14.1730 C   0  0  0  0  0  0  0  0  0  0  0  0
  -10.7690  -15.7762   13.3698 C   0  0  0  0  0  0  0  0  0  0  0  0
  -10.3699  -14.2548   12.7498 Cl  0  0  0  0  0  0  0  0  0  0  0  0
  -10.0678  -17.0168   13.2501 C   0  0  0  0  0  0  0  0  0  0  0  0
  -10.6305  -18.1875   13.6945 N   0  0  0  0  0  0  0  0  0  0  0  0
  -14.4635  -21.8269   13.6670 O   0  0  0  0  0  0  0  0  0  0  0  0
  -14.9727  -23.2137   14.0688 C   0  0  0  0  0  0  0  0  0  0  0  0
  -14.3768  -24.3487   15.0331 C   0  0  0  0  0  0  0  0  0  0  0  0
  -14.6385  -24.3647   16.4157 C   0  0  0  0  0  0  0  0  0  0  0  0
  -14.2733  -25.4551   17.2593 C   0  0  0  0  0  0  0  0  0  0  0  0
  -13.6606  -26.6089   16.7884 C   0  0  0  0  0  0  0  0  0  0  0  0
  -13.4104  -27.6518   17.6221 N   0  0  0  0  0  0  0  0  0  0  0  0
  -12.8304  -28.7526   17.1026 C   0  0  0  0  0  0  0  0  0  0  0  0
  -12.4709  -28.8652   15.7744 C   0  0  0  0  0  0  0  0  0  0  0  0
  -12.7430  -27.7894   14.9242 C   0  0  0  0  0  0  0  0  0  0  0  0
  -13.3643  -26.6263   15.4114 C   0  0  0  0  0  0  0  0  0  0  0  0
  -13.7192  -25.5103   14.5605 C   0  0  0  0  0  0  0  0  0  0  0  0
  -12.6557  -19.7916   13.7622 H   0  0  0  0  0  0  0  0  0  0  0  0
  -13.4272  -18.8534   15.3867 H   0  0  0  0  0  0  0  0  0  0  0  0
  -12.6877  -15.6737   14.6593 H   0  0  0  0  0  0  0  0  0  0  0  0
   -9.0731  -17.1572   12.8633 H   0  0  0  0  0  0  0  0  0  0  0  0
  -15.9982  -23.0304   14.4160 H   0  0  0  0  0  0  0  0  0  0  0  0
  -15.0908  -23.7093   13.0968 H   0  0  0  0  0  0  0  0  0  0  0  0
  -15.1511  -23.5192   16.8718 H   0  0  0  0  0  0  0  0  0  0  0  0
  -14.5076  -25.3939   18.3203 H   0  0  0  0  0  0  0  0  0  0  0  0
  -12.6691  -29.5621   17.8047 H   0  0  0  0  0  0  0  0  0  0  0  0
  -11.9887  -29.7625   15.4025 H   0  0  0  0  0  0  0  0  0  0  0  0
  -12.4725  -27.8675   13.8743 H   0  0  0  0  0  0  0  0  0  0  0  0
  -13.5006  -25.5854   13.4955 H   0  0  0  0  0  0  0  0  0  0  0  0
  1  2  2  0
  2  3  1  0
  3  4  1  0
  4  5  1  0
  5  6  2  0
  6  7  1  0
  6  8  1  0
  8  9  2  0
  2 10  1  0
 10 11  1  0
 11 12  1  0
 12 13  2  0
 13 14  1  0
 14 15  2  0
 15 16  1  0
 16 17  2  0
 17 18  1  0
 18 19  2  0
 19 20  1  0
 20 21  2  0
  9  4  1  0
 21 12  1  0
 20 15  1  0
  3 22  1  0
  3 23  1  0
  5 24  1  0
  8 25  1  0
 11 26  1  0
 11 27  1  0
 13 28  1  0
 14 29  1  0
 17 30  1  0
 18 31  1  0
 19 32  1  0
 21 33  1  0
M  END
>  <Energy>  (313) 
318.57018421150644

>  <compound_id>  (313) 
46862

>  <target_id>  (313) 
1

>  <reference_id>  (313) 
99

>  <inspiration_ids>  (313) 
[99, 68]

>  <energy_score>  (313) 
253.51813837466335

>  <distance_score>  (313) 
13.906015484318377

>  <path>  (313) 
/opt/xchem-fragalysis-2/maxwin/BulkDock/SCRATCH/511025/C46862-P99/C46862-P99.minimised.mol

>  <scratch_subdir>  (313) 
/opt/xchem-fragalysis-2/maxwin/BulkDock/SCRATCH/511025/C46862-P99

>  <fragmenstein_runtime>  (313) 
13.00132966041565

>  <fragmenstein_outcome>  (313) 
too moved

>  <fragmenstein_mode>  (313) 
expansion

>  <fragmenstein_error>  (313) 


$$$$
C46862-P68
     RDKit          3D

 33 35  0  0  0  0  0  0  0  0999 V2000
  -11.0970  -21.2288   13.3646 O   0  0  0  0  0  0  0  0  0  0  0  0
  -11.7972  -20.2814   13.7542 C   0  0  0  0  0  0  0  0  0  0  0  0
  -11.1602  -18.5365   14.0677 C   0  0  0  0  0  0  0  0  0  0  0  0
  -10.7112  -16.8981   13.4733 N   0  0  0  0  0  0  0  0  0  0  0  0
  -11.3931  -15.4015   13.5227 C   0  0  0  0  0  0  0  0  0  0  0  0
  -10.4951  -14.5625   12.9426 C   0  0  0  0  0  0  0  0  0  0  0  0
  -10.1244  -13.0389   12.2748 Cl  0  0  0  0  0  0  0  0  0  0  0  0
   -9.7236  -15.1030   13.8907 C   0  0  0  0  0  0  0  0  0  0  0  0
   -9.4850  -16.4623   13.5746 N   0  0  0  0  0  0  0  0  0  0  0  0
  -13.4893  -20.4831   14.2012 O   0  0  0  0  0  0  0  0  0  0  0  0
  -14.6323  -21.9039   14.3064 C   0  0  0  0  0  0  0  0  0  0  0  0
  -14.3105  -23.5068   14.5766 C   0  0  0  0  0  0  0  0  0  0  0  0
  -13.4812  -24.2873   13.7592 C   0  0  0  0  0  0  0  0  0  0  0  0
  -13.0509  -25.5959   14.1560 C   0  0  0  0  0  0  0  0  0  0  0  0
  -13.4018  -26.2045   15.3647 C   0  0  0  0  0  0  0  0  0  0  0  0
  -12.8720  -27.4059   15.7252 N   0  0  0  0  0  0  0  0  0  0  0  0
  -13.2005  -27.9195   16.9303 C   0  0  0  0  0  0  0  0  0  0  0  0
  -14.0683  -27.2933   17.7992 C   0  0  0  0  0  0  0  0  0  0  0  0
  -14.6269  -26.0689   17.4122 C   0  0  0  0  0  0  0  0  0  0  0  0
  -14.2940  -25.4797   16.1782 C   0  0  0  0  0  0  0  0  0  0  0  0
  -14.7643  -24.1709   15.7641 C   0  0  0  0  0  0  0  0  0  0  0  0
  -10.3740  -18.8261   13.3670 H   0  0  0  0  0  0  0  0  0  0  0  0
  -10.7485  -18.5502   15.0713 H   0  0  0  0  0  0  0  0  0  0  0  0
  -12.3452  -15.3084   14.0048 H   0  0  0  0  0  0  0  0  0  0  0  0
   -8.9681  -14.5665   14.4745 H   0  0  0  0  0  0  0  0  0  0  0  0
  -15.1085  -21.6655   15.2397 H   0  0  0  0  0  0  0  0  0  0  0  0
  -15.4481  -21.7275   13.6031 H   0  0  0  0  0  0  0  0  0  0  0  0
  -13.0779  -23.8721   12.8378 H   0  0  0  0  0  0  0  0  0  0  0  0
  -12.3626  -26.1286   13.5002 H   0  0  0  0  0  0  0  0  0  0  0  0
  -12.7423  -28.8707   17.1775 H   0  0  0  0  0  0  0  0  0  0  0  0
  -14.3070  -27.7348   18.7574 H   0  0  0  0  0  0  0  0  0  0  0  0
  -15.3004  -25.5575   18.0953 H   0  0  0  0  0  0  0  0  0  0  0  0
  -15.4173  -23.6262   16.4459 H   0  0  0  0  0  0  0  0  0  0  0  0
  1  2  2  0
  2  3  1  0
  3  4  1  0
  4  5  1  0
  5  6  2  0
  6  7  1  0
  6  8  1  0
  8  9  2  0
  2 10  1  0
 10 11  1  0
 11 12  1  0
 12 13  2  0
 13 14  1  0
 14 15  2  0
 15 16  1  0
 16 17  2  0
 17 18  1  0
 18 19  2  0
 19 20  1  0
 20 21  2  0
  9  4  1  0
 21 12  1  0
 20 15  1  0
  3 22  1  0
  3 23  1  0
  5 24  1  0
  8 25  1  0
 11 26  1  0
 11 27  1  0
 13 28  1  0
 14 29  1  0
 17 30  1  0
 18 31  1  0
 19 32  1  0
 21 33  1  0
M  END
>  <Energy>  (314) 
380.88986334167828

>  <compound_id>  (314) 
46862

>  <target_id>  (314) 
1

>  <reference_id>  (314) 
68

>  <inspiration_ids>  (314) 
[99, 68]

>  <energy_score>  (314) 
315.83781750483865

>  <distance_score>  (314) 
14.022320882625905

>  <path>  (314) 
/opt/xchem-fragalysis-2/maxwin/BulkDock/SCRATCH/511025/C46862-P68/C46862-P68.minimised.mol

>  <scratch_subdir>  (314) 
/opt/xchem-fragalysis-2/maxwin/BulkDock/SCRATCH/511025/C46862-P68

>  <fragmenstein_runtime>  (314) 
11.107988119125366

>  <fragmenstein_outcome>  (314) 
too moved

>  <fragmenstein_mode>  (314) 
expansion

>  <fragmenstein_error>  (314) 


$$$$
C46864-P99
     RDKit          3D

 34 36  0  0  0  0  0  0  0  0999 V2000
   -9.6962  -11.7016   15.0326 O   0  0  0  0  0  0  0  0  0  0  0  0
   -9.0404  -11.9810   14.1229 C   0  0  0  0  0  0  0  0  0  0  0  0
   -8.6386  -13.2249   13.6584 N   0  0  0  0  0  0  0  0  0  0  0  0
   -8.8311  -14.5745   14.2304 C   0  0  0  0  0  0  0  0  0  0  0  0
   -7.4994  -15.6105   15.1435 C   0  0  0  0  0  0  0  0  0  0  0  0
   -6.6070  -16.1301   16.6548 C   0  0  0  0  0  0  0  0  0  0  0  0
   -4.8740  -16.2052   16.8775 C   0  0  0  0  0  0  0  0  0  0  0  0
   -4.1593  -17.1733   17.8695 C   0  0  0  0  0  0  0  0  0  0  0  0
   -4.7742  -18.2000   18.6530 C   0  0  0  0  0  0  0  0  0  0  0  0
   -3.9187  -19.0208   19.3297 N   0  0  0  0  0  0  0  0  0  0  0  0
   -4.3424  -20.1815   19.8771 C   0  0  0  0  0  0  0  0  0  0  0  0
   -5.6261  -20.6084   19.7653 C   0  0  0  0  0  0  0  0  0  0  0  0
   -6.4968  -19.7435   19.0929 C   0  0  0  0  0  0  0  0  0  0  0  0
   -6.1989  -18.4101   18.5200 C   0  0  0  0  0  0  0  0  0  0  0  0
   -7.1789  -17.3558   17.5701 C   0  0  0  0  0  0  0  0  0  0  0  0
   -8.5139  -10.7464   13.4865 C   0  0  0  0  0  0  0  0  0  0  0  0
   -9.5268   -9.9858   12.9643 N   0  0  0  0  0  0  0  0  0  0  0  0
  -10.0828   -9.2857   13.9769 N   0  0  0  0  0  0  0  0  0  0  0  0
   -8.9944   -8.7564   14.4975 C   0  0  0  0  0  0  0  0  0  0  0  0
   -7.9263   -9.5477   14.1222 C   0  0  0  0  0  0  0  0  0  0  0  0
   -6.3542   -8.9020   14.4621 Cl  0  0  0  0  0  0  0  0  0  0  0  0
   -8.1384  -13.1029   12.7894 H   0  0  0  0  0  0  0  0  0  0  0  0
   -9.6126  -15.1868   13.7084 H   0  0  0  0  0  0  0  0  0  0  0  0
   -9.5664  -14.1683   14.8281 H   0  0  0  0  0  0  0  0  0  0  0  0
   -7.1375  -14.6441   15.4754 H   0  0  0  0  0  0  0  0  0  0  0  0
   -7.0584  -16.1224   14.2909 H   0  0  0  0  0  0  0  0  0  0  0  0
   -4.1081  -15.9002   16.1637 H   0  0  0  0  0  0  0  0  0  0  0  0
   -3.0680  -17.1267   17.8747 H   0  0  0  0  0  0  0  0  0  0  0  0
   -3.5819  -20.7667   20.3829 H   0  0  0  0  0  0  0  0  0  0  0  0
   -5.9513  -21.5696   20.1413 H   0  0  0  0  0  0  0  0  0  0  0  0
   -7.4676  -20.2100   18.8935 H   0  0  0  0  0  0  0  0  0  0  0  0
   -8.1723  -17.6553   17.2871 H   0  0  0  0  0  0  0  0  0  0  0  0
  -10.1032  -10.2142   12.1766 H   0  0  0  0  0  0  0  0  0  0  0  0
   -9.0480   -7.8514   15.0929 H   0  0  0  0  0  0  0  0  0  0  0  0
  1  2  2  0
  2  3  1  0
  3  4  1  0
  4  5  1  0
  5  6  1  0
  6  7  2  0
  7  8  1  0
  8  9  2  0
  9 10  1  0
 10 11  2  0
 11 12  1  0
 12 13  2  0
 13 14  1  0
 14 15  2  0
  2 16  1  0
 16 17  1  0
 17 18  1  0
 18 19  2  0
 19 20  1  0
 20 21  1  0
 15  6  1  0
 20 16  2  0
 14  9  1  0
  3 22  1  0
  4 23  1  0
  4 24  1  0
  5 25  1  0
  5 26  1  0
  7 27  1  0
  8 28  1  0
 11 29  1  0
 12 30  1  0
 13 31  1  0
 15 32  1  0
 17 33  1  0
 19 34  1  0
M  END
>  <Energy>  (315) 
343.69548325722923

>  <compound_id>  (315) 
46864

>  <target_id>  (315) 
1

>  <reference_id>  (315) 
99

>  <inspiration_ids>  (315) 
[99, 68]

>  <energy_score>  (315) 
324.1403797190665

>  <distance_score>  (315) 
16.88006227199887

>  <path>  (315) 
/opt/xchem-fragalysis-2/maxwin/BulkDock/SCRATCH/511025/C46864-P99/C46864-P99.minimised.mol

>  <scratch_subdir>  (315) 
/opt/xchem-fragalysis-2/maxwin/BulkDock/SCRATCH/511025/C46864-P99

>  <fragmenstein_runtime>  (315) 
18.834834575653076

>  <fragmenstein_outcome>  (315) 
too moved

>  <fragmenstein_mode>  (315) 
expansion

>  <fragmenstein_error>  (315) 


$$$$
C46864-P68
     RDKit          3D

 34 36  0  0  0  0  0  0  0  0999 V2000
   -9.8567  -23.8821   10.6708 O   0  0  0  0  0  0  0  0  0  0  0  0
   -8.9083  -23.7434   11.3866 C   0  0  0  0  0  0  0  0  0  0  0  0
   -8.3261  -24.6507   12.3888 N   0  0  0  0  0  0  0  0  0  0  0  0
   -8.6730  -26.0561   12.7528 C   0  0  0  0  0  0  0  0  0  0  0  0
   -8.5954  -26.4773   14.2701 C   0  0  0  0  0  0  0  0  0  0  0  0
   -8.4164  -27.9768   14.5561 C   0  0  0  0  0  0  0  0  0  0  0  0
   -9.4446  -28.9058   14.3691 C   0  0  0  0  0  0  0  0  0  0  0  0
   -9.2261  -30.2849   14.5849 C   0  0  0  0  0  0  0  0  0  0  0  0
   -7.9972  -30.7926   14.9936 C   0  0  0  0  0  0  0  0  0  0  0  0
   -7.8206  -32.1233   15.1203 N   0  0  0  0  0  0  0  0  0  0  0  0
   -6.5885  -32.5681   15.4516 C   0  0  0  0  0  0  0  0  0  0  0  0
   -5.5207  -31.7413   15.7363 C   0  0  0  0  0  0  0  0  0  0  0  0
   -5.7153  -30.3698   15.6213 C   0  0  0  0  0  0  0  0  0  0  0  0
   -6.9624  -29.8673   15.2203 C   0  0  0  0  0  0  0  0  0  0  0  0
   -7.1847  -28.4801   15.0145 C   0  0  0  0  0  0  0  0  0  0  0  0
   -8.1575  -22.4613   11.2255 C   0  0  0  0  0  0  0  0  0  0  0  0
   -7.3655  -21.8865   12.1909 N   0  0  0  0  0  0  0  0  0  0  0  0
   -6.6973  -20.7860   11.8234 N   0  0  0  0  0  0  0  0  0  0  0  0
   -7.1239  -20.5758   10.5866 C   0  0  0  0  0  0  0  0  0  0  0  0
   -8.1051  -21.4992   10.2007 C   0  0  0  0  0  0  0  0  0  0  0  0
   -8.8984  -21.2787    8.7094 Cl  0  0  0  0  0  0  0  0  0  0  0  0
   -7.4771  -24.2441   12.7490 H   0  0  0  0  0  0  0  0  0  0  0  0
   -7.9723  -26.6729   12.1782 H   0  0  0  0  0  0  0  0  0  0  0  0
   -9.6750  -26.2618   12.3604 H   0  0  0  0  0  0  0  0  0  0  0  0
   -7.7606  -25.9340   14.7315 H   0  0  0  0  0  0  0  0  0  0  0  0
   -9.4971  -26.1235   14.7855 H   0  0  0  0  0  0  0  0  0  0  0  0
  -10.4234  -28.5760   14.0252 H   0  0  0  0  0  0  0  0  0  0  0  0
  -10.0361  -30.9857   14.3908 H   0  0  0  0  0  0  0  0  0  0  0  0
   -6.4848  -33.6486   15.4895 H   0  0  0  0  0  0  0  0  0  0  0  0
   -4.5572  -32.1485   16.0190 H   0  0  0  0  0  0  0  0  0  0  0  0
   -4.8890  -29.6945   15.8263 H   0  0  0  0  0  0  0  0  0  0  0  0
   -6.3636  -27.7882   15.1963 H   0  0  0  0  0  0  0  0  0  0  0  0
   -7.2375  -22.2105   13.1412 H   0  0  0  0  0  0  0  0  0  0  0  0
   -6.7351  -19.7552   10.0083 H   0  0  0  0  0  0  0  0  0  0  0  0
  1  2  2  0
  2  3  1  0
  3  4  1  0
  4  5  1  0
  5  6  1  0
  6  7  2  0
  7  8  1  0
  8  9  2  0
  9 10  1  0
 10 11  2  0
 11 12  1  0
 12 13  2  0
 13 14  1  0
 14 15  2  0
  2 16  1  0
 16 17  1  0
 17 18  1  0
 18 19  2  0
 19 20  1  0
 20 21  1  0
 15  6  1  0
 20 16  2  0
 14  9  1  0
  3 22  1  0
  4 23  1  0
  4 24  1  0
  5 25  1  0
  5 26  1  0
  7 27  1  0
  8 28  1  0
 11 29  1  0
 12 30  1  0
 13 31  1  0
 15 32  1  0
 17 33  1  0
 19 34  1  0
M  END
>  <Energy>  (316) 
31.402147333001857

>  <compound_id>  (316) 
46864

>  <target_id>  (316) 
1

>  <reference_id>  (316) 
68

>  <inspiration_ids>  (316) 
[99, 68]

>  <energy_score>  (316) 
11.847043794832075

>  <distance_score>  (316) 
13.700359625040356

>  <path>  (316) 
/opt/xchem-fragalysis-2/maxwin/BulkDock/SCRATCH/511025/C46864-P68/C46864-P68.minimised.mol

>  <scratch_subdir>  (316) 
/opt/xchem-fragalysis-2/maxwin/BulkDock/SCRATCH/511025/C46864-P68

>  <fragmenstein_runtime>  (316) 
20.409249782562256

>  <fragmenstein_outcome>  (316) 
too moved

>  <fragmenstein_mode>  (316) 
expansion

>  <fragmenstein_error>  (316) 


$$$$
C46865-P99
     RDKit          3D

 37 41  0  0  0  0  0  0  0  0999 V2000
  -12.7335  -27.2973   14.9504 C   0  0  0  0  0  0  0  0  0  0  0  0
  -11.5554  -28.0154   14.9138 C   0  0  0  0  0  0  0  0  0  0  0  0
  -10.4497  -27.5514   14.3055 N   0  0  0  0  0  0  0  0  0  0  0  0
  -10.5030  -26.3098   13.7519 C   0  0  0  0  0  0  0  0  0  0  0  0
   -9.4289  -25.8062   13.0674 C   0  0  0  0  0  0  0  0  0  0  0  0
   -9.3457  -24.4351   12.6581 C   0  0  0  0  0  0  0  0  0  0  0  0
  -10.3019  -23.4317   12.9170 C   0  0  0  0  0  0  0  0  0  0  0  0
   -9.8840  -21.8841   12.6603 C   0  0  0  0  0  0  0  0  0  0  0  0
  -10.2279  -20.5087   13.1017 N   0  0  0  0  0  0  0  0  0  0  0  0
   -9.4306  -19.4503   12.3719 C   0  0  0  0  0  0  0  0  0  0  0  0
   -9.5164  -17.6659   12.8448 C   0  0  0  0  0  0  0  0  0  0  0  0
  -10.5040  -16.6076   12.6707 C   0  0  0  0  0  0  0  0  0  0  0  0
  -10.5146  -15.3076   13.1229 C   0  0  0  0  0  0  0  0  0  0  0  0
   -9.4784  -15.2864   13.8811 N   0  0  0  0  0  0  0  0  0  0  0  0
   -8.7490  -16.7809   13.5257 N   0  0  0  0  0  0  0  0  0  0  0  0
   -8.4218  -20.4209   11.6937 N   0  0  0  0  0  0  0  0  0  0  0  0
   -6.8920  -20.5735   12.0029 C   0  0  0  0  0  0  0  0  0  0  0  0
   -5.9003  -19.4841   11.9334 C   0  0  0  0  0  0  0  0  0  0  0  0
   -5.6773  -20.7176   11.1385 C   0  0  0  0  0  0  0  0  0  0  0  0
   -8.9059  -21.7444   11.7982 N   0  0  0  0  0  0  0  0  0  0  0  0
  -11.5133  -24.0675   13.2560 C   0  0  0  0  0  0  0  0  0  0  0  0
  -11.6141  -25.4600   13.7667 C   0  0  0  0  0  0  0  0  0  0  0  0
  -12.7663  -26.0237   14.3547 C   0  0  0  0  0  0  0  0  0  0  0  0
  -13.6163  -27.7060   15.4296 H   0  0  0  0  0  0  0  0  0  0  0  0
  -11.4729  -29.0021   15.3578 H   0  0  0  0  0  0  0  0  0  0  0  0
   -8.5905  -26.4683   12.8639 H   0  0  0  0  0  0  0  0  0  0  0  0
   -8.4350  -24.1721   12.1262 H   0  0  0  0  0  0  0  0  0  0  0  0
  -11.1301  -16.6510   11.7790 H   0  0  0  0  0  0  0  0  0  0  0  0
  -11.1499  -14.4520   12.9464 H   0  0  0  0  0  0  0  0  0  0  0  0
   -7.8391  -16.8880   13.9463 H   0  0  0  0  0  0  0  0  0  0  0  0
   -6.8185  -21.3266   12.7847 H   0  0  0  0  0  0  0  0  0  0  0  0
   -6.3190  -18.5619   11.6074 H   0  0  0  0  0  0  0  0  0  0  0  0
   -4.9709  -19.3073   12.4569 H   0  0  0  0  0  0  0  0  0  0  0  0
   -5.5282  -20.5825   10.0937 H   0  0  0  0  0  0  0  0  0  0  0  0
   -4.8843  -21.3847   11.4622 H   0  0  0  0  0  0  0  0  0  0  0  0
  -12.4450  -23.5073   13.2248 H   0  0  0  0  0  0  0  0  0  0  0  0
  -13.6858  -25.4435   14.4009 H   0  0  0  0  0  0  0  0  0  0  0  0
  1  2  2  0
  2  3  1  0
  3  4  2  0
  4  5  1  0
  5  6  2  0
  6  7  1  0
  7  8  1  0
  8  9  1  0
  9 10  2  0
 10 11  1  0
 11 12  2  0
 12 13  1  0
 13 14  2  0
 14 15  1  0
 10 16  1  0
 16 17  1  0
 17 18  1  0
 18 19  1  0
 16 20  1  0
  7 21  2  0
 21 22  1  0
 22 23  2  0
 23  1  1  0
 22  4  1  0
 20  8  2  0
 15 11  1  0
 19 17  1  0
  1 24  1  0
  2 25  1  0
  5 26  1  0
  6 27  1  0
 12 28  1  0
 13 29  1  0
 15 30  1  0
 17 31  1  0
 18 32  1  0
 18 33  1  0
 19 34  1  0
 19 35  1  0
 21 36  1  0
 23 37  1  0
M  END
>  <Energy>  (317) 
333.81761345935922

>  <compound_id>  (317) 
46865

>  <target_id>  (317) 
1

>  <reference_id>  (317) 
99

>  <inspiration_ids>  (317) 
[99, 68]

>  <energy_score>  (317) 
234.00801374187915

>  <distance_score>  (317) 
14.791916804325238

>  <path>  (317) 
/opt/xchem-fragalysis-2/maxwin/BulkDock/SCRATCH/511025/C46865-P99/C46865-P99.minimised.mol

>  <scratch_subdir>  (317) 
/opt/xchem-fragalysis-2/maxwin/BulkDock/SCRATCH/511025/C46865-P99

>  <fragmenstein_runtime>  (317) 
13.629626512527466

>  <fragmenstein_outcome>  (317) 
too moved

>  <fragmenstein_mode>  (317) 
expansion

>  <fragmenstein_error>  (317) 


$$$$
C46865-P68
     RDKit          3D

 37 41  0  0  0  0  0  0  0  0999 V2000
   -4.2220  -25.0116   10.8788 C   0  0  0  0  0  0  0  0  0  0  0  0
   -5.3404  -25.4960   11.5241 C   0  0  0  0  0  0  0  0  0  0  0  0
   -6.2953  -24.6923   12.0257 N   0  0  0  0  0  0  0  0  0  0  0  0
   -6.1066  -23.3430   11.9561 C   0  0  0  0  0  0  0  0  0  0  0  0
   -6.9675  -22.4271   12.6296 C   0  0  0  0  0  0  0  0  0  0  0  0
   -6.9397  -21.0153   12.4290 C   0  0  0  0  0  0  0  0  0  0  0  0
   -6.0497  -20.3655   11.5725 C   0  0  0  0  0  0  0  0  0  0  0  0
   -6.9293  -19.4166   10.4727 C   0  0  0  0  0  0  0  0  0  0  0  0
   -6.3442  -18.4465    9.1390 N   0  0  0  0  0  0  0  0  0  0  0  0
   -7.2397  -18.1463    8.1498 C   0  0  0  0  0  0  0  0  0  0  0  0
   -6.7810  -17.0549    7.1467 C   0  0  0  0  0  0  0  0  0  0  0  0
   -6.3722  -15.7195    7.3311 C   0  0  0  0  0  0  0  0  0  0  0  0
   -6.0274  -15.2032    6.0701 C   0  0  0  0  0  0  0  0  0  0  0  0
   -6.2227  -16.1051    5.1151 N   0  0  0  0  0  0  0  0  0  0  0  0
   -6.6166  -17.2183    5.7764 N   0  0  0  0  0  0  0  0  0  0  0  0
   -8.2406  -19.2433    8.3524 N   0  0  0  0  0  0  0  0  0  0  0  0
   -9.3090  -19.7376    7.3895 C   0  0  0  0  0  0  0  0  0  0  0  0
  -10.4541  -20.3137    8.2288 C   0  0  0  0  0  0  0  0  0  0  0  0
  -10.2190  -20.8515    6.8995 C   0  0  0  0  0  0  0  0  0  0  0  0
   -8.1457  -19.8774    9.9262 N   0  0  0  0  0  0  0  0  0  0  0  0
   -4.9811  -21.2519   11.1342 C   0  0  0  0  0  0  0  0  0  0  0  0
   -5.0347  -22.7311   11.2548 C   0  0  0  0  0  0  0  0  0  0  0  0
   -4.0878  -23.6232   10.7115 C   0  0  0  0  0  0  0  0  0  0  0  0
   -3.4756  -25.6887   10.4803 H   0  0  0  0  0  0  0  0  0  0  0  0
   -5.5083  -26.5601   11.6482 H   0  0  0  0  0  0  0  0  0  0  0  0
   -7.9168  -22.7606   13.0445 H   0  0  0  0  0  0  0  0  0  0  0  0
   -7.9289  -20.5777   12.3927 H   0  0  0  0  0  0  0  0  0  0  0  0
   -6.3629  -15.1510    8.2466 H   0  0  0  0  0  0  0  0  0  0  0  0
   -5.6715  -14.2148    5.8065 H   0  0  0  0  0  0  0  0  0  0  0  0
   -6.7937  -18.0533    5.2276 H   0  0  0  0  0  0  0  0  0  0  0  0
   -9.1403  -19.2973    6.4203 H   0  0  0  0  0  0  0  0  0  0  0  0
  -10.3806  -21.0636    8.9773 H   0  0  0  0  0  0  0  0  0  0  0  0
  -10.8762  -19.4735    8.7565 H   0  0  0  0  0  0  0  0  0  0  0  0
  -10.9205  -20.6267    6.0983 H   0  0  0  0  0  0  0  0  0  0  0  0
   -9.9096  -21.8828    6.7873 H   0  0  0  0  0  0  0  0  0  0  0  0
   -4.2175  -20.8501   10.4677 H   0  0  0  0  0  0  0  0  0  0  0  0
   -3.2251  -23.2319   10.1797 H   0  0  0  0  0  0  0  0  0  0  0  0
  1  2  2  0
  2  3  1  0
  3  4  2  0
  4  5  1  0
  5  6  2  0
  6  7  1  0
  7  8  1  0
  8  9  1  0
  9 10  2  0
 10 11  1  0
 11 12  2  0
 12 13  1  0
 13 14  2  0
 14 15  1  0
 10 16  1  0
 16 17  1  0
 17 18  1  0
 18 19  1  0
 16 20  1  0
  7 21  2  0
 21 22  1  0
 22 23  2  0
 23  1  1  0
 22  4  1  0
 20  8  2  0
 15 11  1  0
 19 17  1  0
  1 24  1  0
  2 25  1  0
  5 26  1  0
  6 27  1  0
 12 28  1  0
 13 29  1  0
 15 30  1  0
 17 31  1  0
 18 32  1  0
 18 33  1  0
 19 34  1  0
 19 35  1  0
 21 36  1  0
 23 37  1  0
M  END
>  <Energy>  (318) 
291.93963682329388

>  <compound_id>  (318) 
46865

>  <target_id>  (318) 
1

>  <reference_id>  (318) 
68

>  <inspiration_ids>  (318) 
[99, 68]

>  <energy_score>  (318) 
192.1300371058167

>  <distance_score>  (318) 
16.799940137926853

>  <path>  (318) 
/opt/xchem-fragalysis-2/maxwin/BulkDock/SCRATCH/511025/C46865-P68/C46865-P68.minimised.mol

>  <scratch_subdir>  (318) 
/opt/xchem-fragalysis-2/maxwin/BulkDock/SCRATCH/511025/C46865-P68

>  <fragmenstein_runtime>  (318) 
16.651912927627563

>  <fragmenstein_outcome>  (318) 
too moved

>  <fragmenstein_mode>  (318) 
expansion

>  <fragmenstein_error>  (318) 


$$$$
C46866-P99
     RDKit          3D

 39 42  0  0  0  0  0  0  0  0999 V2000
  -10.9059  -17.8100   17.9196 C   0  0  0  0  0  0  0  0  0  0  0  0
   -9.2610  -18.5934   17.4473 C   0  0  0  0  0  0  0  0  0  0  0  0
   -7.3293  -18.3494   18.5893 C   0  0  0  0  0  0  0  0  0  0  0  0
   -6.1724  -19.0149   18.3128 N   0  0  0  0  0  0  0  0  0  0  0  0
   -5.8913  -20.2350   18.5289 N   0  0  0  0  0  0  0  0  0  0  0  0
   -6.5775  -21.3498   17.3884 C   0  0  0  0  0  0  0  0  0  0  0  0
   -5.9328  -23.2447   16.9383 C   0  0  0  0  0  0  0  0  0  0  0  0
   -4.5034  -23.6489   16.9110 C   0  0  0  0  0  0  0  0  0  0  0  0
   -4.0223  -24.9975   17.1255 C   0  0  0  0  0  0  0  0  0  0  0  0
   -4.8583  -26.1057   17.2143 C   0  0  0  0  0  0  0  0  0  0  0  0
   -4.4289  -27.3342   17.6209 N   0  0  0  0  0  0  0  0  0  0  0  0
   -5.2940  -28.3733   17.5706 C   0  0  0  0  0  0  0  0  0  0  0  0
   -6.5802  -28.2556   17.0883 C   0  0  0  0  0  0  0  0  0  0  0  0
   -7.0025  -26.9909   16.6686 C   0  0  0  0  0  0  0  0  0  0  0  0
   -6.1545  -25.8681   16.7768 C   0  0  0  0  0  0  0  0  0  0  0  0
   -6.5759  -24.5112   16.4858 C   0  0  0  0  0  0  0  0  0  0  0  0
   -7.7439  -20.5114   17.4787 N   0  0  0  0  0  0  0  0  0  0  0  0
   -7.2544  -19.0731   17.5401 C   0  0  0  0  0  0  0  0  0  0  0  0
   -7.6634  -17.4387   16.8470 C   0  0  0  0  0  0  0  0  0  0  0  0
   -7.9346  -16.2283   17.3034 C   0  0  0  0  0  0  0  0  0  0  0  0
   -7.0048  -15.5407   16.4132 C   0  0  0  0  0  0  0  0  0  0  0  0
   -7.4194  -15.9141   15.2220 N   0  0  0  0  0  0  0  0  0  0  0  0
   -7.9971  -17.0722   15.6405 N   0  0  0  0  0  0  0  0  0  0  0  0
  -11.4641  -17.7141   16.9864 H   0  0  0  0  0  0  0  0  0  0  0  0
  -11.0480  -17.1769   18.7811 H   0  0  0  0  0  0  0  0  0  0  0  0
  -11.4250  -18.5300   18.5348 H   0  0  0  0  0  0  0  0  0  0  0  0
   -9.4745  -19.6677   17.6946 H   0  0  0  0  0  0  0  0  0  0  0  0
   -9.5972  -18.7446   16.3838 H   0  0  0  0  0  0  0  0  0  0  0  0
   -6.9772  -17.4051   19.0102 H   0  0  0  0  0  0  0  0  0  0  0  0
   -7.3617  -18.9344   19.6583 H   0  0  0  0  0  0  0  0  0  0  0  0
   -3.7307  -22.8719   16.8991 H   0  0  0  0  0  0  0  0  0  0  0  0
   -2.9544  -25.1375   17.2850 H   0  0  0  0  0  0  0  0  0  0  0  0
   -4.9008  -29.3245   17.9167 H   0  0  0  0  0  0  0  0  0  0  0  0
   -7.2386  -29.1145   17.0363 H   0  0  0  0  0  0  0  0  0  0  0  0
   -8.0167  -26.8708   16.2958 H   0  0  0  0  0  0  0  0  0  0  0  0
   -7.5016  -24.4700   15.9042 H   0  0  0  0  0  0  0  0  0  0  0  0
   -8.3784  -15.9263   18.2357 H   0  0  0  0  0  0  0  0  0  0  0  0
   -6.6942  -14.5208   16.5173 H   0  0  0  0  0  0  0  0  0  0  0  0
   -8.3025  -17.6204   14.8635 H   0  0  0  0  0  0  0  0  0  0  0  0
  1  2  1  0
  2  3  1  0
  3  4  1  0
  4  5  1  0
  5  6  2  0
  6  7  1  0
  7  8  2  0
  8  9  1  0
  9 10  2  0
 10 11  1  0
 11 12  2  0
 12 13  1  0
 13 14  2  0
 14 15  1  0
 15 16  2  0
  6 17  1  0
 17 18  2  0
 18 19  1  0
 19 20  2  0
 20 21  1  0
 21 22  2  0
 22 23  1  0
 18  4  1  0
 23 19  1  0
 16  7  1  0
 15 10  1  0
  1 24  1  0
  1 25  1  0
  1 26  1  0
  2 27  1  0
  2 28  1  0
  3 29  1  0
  3 30  1  0
  8 31  1  0
  9 32  1  0
 12 33  1  0
 13 34  1  0
 14 35  1  0
 16 36  1  0
 20 37  1  0
 21 38  1  0
 23 39  1  0
M  END
>  <Energy>  (319) 
1013.4835874934636

>  <compound_id>  (319) 
46866

>  <target_id>  (319) 
1

>  <reference_id>  (319) 
99

>  <inspiration_ids>  (319) 
[99, 68]

>  <energy_score>  (319) 
928.3055083541285

>  <distance_score>  (319) 
14.298074701436684

>  <path>  (319) 
/opt/xchem-fragalysis-2/maxwin/BulkDock/SCRATCH/511025/C46866-P99/C46866-P99.minimised.mol

>  <scratch_subdir>  (319) 
/opt/xchem-fragalysis-2/maxwin/BulkDock/SCRATCH/511025/C46866-P99

>  <fragmenstein_runtime>  (319) 
20.083775758743286

>  <fragmenstein_outcome>  (319) 
too moved

>  <fragmenstein_mode>  (319) 
expansion

>  <fragmenstein_error>  (319) 


$$$$
C46866-P68
     RDKit          3D

 39 42  0  0  0  0  0  0  0  0999 V2000
   -8.9260  -20.9026   17.4466 C   0  0  0  0  0  0  0  0  0  0  0  0
   -9.4854  -21.9897   15.9324 C   0  0  0  0  0  0  0  0  0  0  0  0
   -8.6591  -22.9553   14.9795 C   0  0  0  0  0  0  0  0  0  0  0  0
   -9.3907  -24.0660   14.3416 N   0  0  0  0  0  0  0  0  0  0  0  0
   -9.8172  -25.0996   15.1070 N   0  0  0  0  0  0  0  0  0  0  0  0
   -9.7909  -26.1524   14.2881 C   0  0  0  0  0  0  0  0  0  0  0  0
  -10.0887  -27.5245   14.8079 C   0  0  0  0  0  0  0  0  0  0  0  0
   -9.8790  -28.6755   14.0502 C   0  0  0  0  0  0  0  0  0  0  0  0
  -10.2442  -29.9510   14.5433 C   0  0  0  0  0  0  0  0  0  0  0  0
  -10.8447  -30.1355   15.7840 C   0  0  0  0  0  0  0  0  0  0  0  0
  -11.2865  -31.3565   16.1433 N   0  0  0  0  0  0  0  0  0  0  0  0
  -11.8829  -31.4848   17.3503 C   0  0  0  0  0  0  0  0  0  0  0  0
  -12.0462  -30.4408   18.2411 C   0  0  0  0  0  0  0  0  0  0  0  0
  -11.6041  -29.1785   17.8534 C   0  0  0  0  0  0  0  0  0  0  0  0
  -11.0063  -28.9985   16.5961 C   0  0  0  0  0  0  0  0  0  0  0  0
  -10.6183  -27.7198   16.1086 C   0  0  0  0  0  0  0  0  0  0  0  0
   -9.4611  -25.7713   12.9704 N   0  0  0  0  0  0  0  0  0  0  0  0
   -9.2706  -24.4447   13.0170 C   0  0  0  0  0  0  0  0  0  0  0  0
   -8.8852  -23.4955   11.9699 C   0  0  0  0  0  0  0  0  0  0  0  0
   -9.0914  -22.1276   11.8732 C   0  0  0  0  0  0  0  0  0  0  0  0
   -8.3434  -21.6720   10.7721 C   0  0  0  0  0  0  0  0  0  0  0  0
   -7.7722  -22.6864   10.1291 N   0  0  0  0  0  0  0  0  0  0  0  0
   -8.1300  -23.7751   10.8610 N   0  0  0  0  0  0  0  0  0  0  0  0
   -9.0918  -21.2485   18.4489 H   0  0  0  0  0  0  0  0  0  0  0  0
   -7.8438  -20.7752   17.5879 H   0  0  0  0  0  0  0  0  0  0  0  0
   -9.3729  -19.9261   17.5237 H   0  0  0  0  0  0  0  0  0  0  0  0
  -10.0209  -21.3434   15.2445 H   0  0  0  0  0  0  0  0  0  0  0  0
  -10.0020  -22.8085   16.3253 H   0  0  0  0  0  0  0  0  0  0  0  0
   -7.8598  -23.5121   15.4755 H   0  0  0  0  0  0  0  0  0  0  0  0
   -8.2320  -22.3688   14.1738 H   0  0  0  0  0  0  0  0  0  0  0  0
   -9.4564  -28.5956   13.0502 H   0  0  0  0  0  0  0  0  0  0  0  0
  -10.0967  -30.8210   13.9064 H   0  0  0  0  0  0  0  0  0  0  0  0
  -12.2057  -32.4912   17.5981 H   0  0  0  0  0  0  0  0  0  0  0  0
  -12.5091  -30.6060   19.2056 H   0  0  0  0  0  0  0  0  0  0  0  0
  -11.7393  -28.3340   18.5229 H   0  0  0  0  0  0  0  0  0  0  0  0
  -10.7842  -26.8478   16.7394 H   0  0  0  0  0  0  0  0  0  0  0  0
   -9.6919  -21.5486   12.5546 H   0  0  0  0  0  0  0  0  0  0  0  0
   -8.2074  -20.6659   10.4012 H   0  0  0  0  0  0  0  0  0  0  0  0
   -7.7866  -24.6858   10.5752 H   0  0  0  0  0  0  0  0  0  0  0  0
  1  2  1  0
  2  3  1  0
  3  4  1  0
  4  5  1  0
  5  6  2  0
  6  7  1  0
  7  8  2  0
  8  9  1  0
  9 10  2  0
 10 11  1  0
 11 12  2  0
 12 13  1  0
 13 14  2  0
 14 15  1  0
 15 16  2  0
  6 17  1  0
 17 18  2  0
 18 19  1  0
 19 20  2  0
 20 21  1  0
 21 22  2  0
 22 23  1  0
 18  4  1  0
 23 19  1  0
 16  7  1  0
 15 10  1  0
  1 24  1  0
  1 25  1  0
  1 26  1  0
  2 27  1  0
  2 28  1  0
  3 29  1  0
  3 30  1  0
  8 31  1  0
  9 32  1  0
 12 33  1  0
 13 34  1  0
 14 35  1  0
 16 36  1  0
 20 37  1  0
 21 38  1  0
 23 39  1  0
M  END
>  <Energy>  (320) 
134.77152796544971

>  <compound_id>  (320) 
46866

>  <target_id>  (320) 
1

>  <reference_id>  (320) 
68

>  <inspiration_ids>  (320) 
[99, 68]

>  <energy_score>  (320) 
49.59344882612254

>  <distance_score>  (320) 
14.39146837650933

>  <path>  (320) 
/opt/xchem-fragalysis-2/maxwin/BulkDock/SCRATCH/511025/C46866-P68/C46866-P68.minimised.mol

>  <scratch_subdir>  (320) 
/opt/xchem-fragalysis-2/maxwin/BulkDock/SCRATCH/511025/C46866-P68

>  <fragmenstein_runtime>  (320) 
25.569591999053955

>  <fragmenstein_outcome>  (320) 
too moved

>  <fragmenstein_mode>  (320) 
expansion

>  <fragmenstein_error>  (320) 


$$$$
C46867-P99
     RDKit          3D

 38 40  0  0  0  0  0  0  0  0999 V2000
   -5.3538  -18.0223   18.7945 O   0  0  0  0  0  0  0  0  0  0  0  0
   -6.4484  -18.4256   18.4554 C   0  0  0  0  0  0  0  0  0  0  0  0
   -7.4994  -17.8125   17.3836 N   0  0  0  0  0  0  0  0  0  0  0  0
   -7.4586  -16.4722   16.5516 C   0  0  0  0  0  0  0  0  0  0  0  0
   -7.6781  -16.1970   14.7509 C   0  0  0  0  0  0  0  0  0  0  0  0
   -8.1088  -14.8679   14.4377 N   0  0  0  0  0  0  0  0  0  0  0  0
   -9.4119  -14.3510   13.8539 C   0  0  0  0  0  0  0  0  0  0  0  0
  -10.4327  -14.9302   13.5897 O   0  0  0  0  0  0  0  0  0  0  0  0
   -9.2574  -12.9371   13.5122 C   0  0  0  0  0  0  0  0  0  0  0  0
   -9.5651  -12.2148   12.3887 C   0  0  0  0  0  0  0  0  0  0  0  0
   -9.4506  -10.8373   12.7920 C   0  0  0  0  0  0  0  0  0  0  0  0
   -8.9057  -10.7068   13.9736 N   0  0  0  0  0  0  0  0  0  0  0  0
   -9.0089  -11.9546   14.4076 N   0  0  0  0  0  0  0  0  0  0  0  0
   -6.7664  -19.8668   19.1914 C   0  0  0  0  0  0  0  0  0  0  0  0
   -6.2098  -20.0484   20.4748 C   0  0  0  0  0  0  0  0  0  0  0  0
   -6.4320  -21.2049   21.2747 C   0  0  0  0  0  0  0  0  0  0  0  0
   -7.2185  -22.2608   20.8550 C   0  0  0  0  0  0  0  0  0  0  0  0
   -7.5224  -23.2695   21.7035 N   0  0  0  0  0  0  0  0  0  0  0  0
   -8.3957  -24.2000   21.2742 C   0  0  0  0  0  0  0  0  0  0  0  0
   -8.8646  -24.2523   19.9775 C   0  0  0  0  0  0  0  0  0  0  0  0
   -8.4585  -23.2587   19.0905 C   0  0  0  0  0  0  0  0  0  0  0  0
   -7.7038  -22.1726   19.5399 C   0  0  0  0  0  0  0  0  0  0  0  0
   -7.4806  -20.9938   18.7338 C   0  0  0  0  0  0  0  0  0  0  0  0
   -8.3308  -18.3355   17.3997 H   0  0  0  0  0  0  0  0  0  0  0  0
   -6.5402  -15.8922   16.6126 H   0  0  0  0  0  0  0  0  0  0  0  0
   -8.2074  -16.0701   17.2073 H   0  0  0  0  0  0  0  0  0  0  0  0
   -8.1686  -16.9914   14.1514 H   0  0  0  0  0  0  0  0  0  0  0  0
   -6.7324  -16.2542   14.1999 H   0  0  0  0  0  0  0  0  0  0  0  0
   -7.4824  -14.1843   14.4458 H   0  0  0  0  0  0  0  0  0  0  0  0
   -9.9850  -12.6204   11.4783 H   0  0  0  0  0  0  0  0  0  0  0  0
   -9.7354   -9.9200   12.2997 H   0  0  0  0  0  0  0  0  0  0  0  0
   -8.7859  -12.1063   15.3705 H   0  0  0  0  0  0  0  0  0  0  0  0
   -5.6042  -19.2486   20.9046 H   0  0  0  0  0  0  0  0  0  0  0  0
   -6.0064  -21.2364   22.2761 H   0  0  0  0  0  0  0  0  0  0  0  0
   -8.7130  -24.9254   22.0178 H   0  0  0  0  0  0  0  0  0  0  0  0
   -9.5464  -25.0396   19.6707 H   0  0  0  0  0  0  0  0  0  0  0  0
   -8.7807  -23.3077   18.0562 H   0  0  0  0  0  0  0  0  0  0  0  0
   -7.9467  -20.9697   17.7588 H   0  0  0  0  0  0  0  0  0  0  0  0
  1  2  2  0
  2  3  1  0
  3  4  1  0
  4  5  1  0
  5  6  1  0
  6  7  1  0
  7  8  2  0
  7  9  1  0
  9 10  2  0
 10 11  1  0
 11 12  2  0
 12 13  1  0
  2 14  1  0
 14 15  2  0
 15 16  1  0
 16 17  2  0
 17 18  1  0
 18 19  2  0
 19 20  1  0
 20 21  2  0
 21 22  1  0
 22 23  2  0
 13  9  1  0
 23 14  1  0
 22 17  1  0
  3 24  1  0
  4 25  1  0
  4 26  1  0
  5 27  1  0
  5 28  1  0
  6 29  1  0
 10 30  1  0
 11 31  1  0
 13 32  1  0
 15 33  1  0
 16 34  1  0
 19 35  1  0
 20 36  1  0
 21 37  1  0
 23 38  1  0
M  END
>  <Energy>  (321) 
124.89157801898497

>  <compound_id>  (321) 
46867

>  <target_id>  (321) 
1

>  <reference_id>  (321) 
99

>  <inspiration_ids>  (321) 
[99, 68]

>  <energy_score>  (321) 
96.38206213237584

>  <distance_score>  (321) 
13.831853614905068

>  <path>  (321) 
/opt/xchem-fragalysis-2/maxwin/BulkDock/SCRATCH/511025/C46867-P99/C46867-P99.minimised.mol

>  <scratch_subdir>  (321) 
/opt/xchem-fragalysis-2/maxwin/BulkDock/SCRATCH/511025/C46867-P99

>  <fragmenstein_runtime>  (321) 
38.5406653881073

>  <fragmenstein_outcome>  (321) 
too moved

>  <fragmenstein_mode>  (321) 
expansion

>  <fragmenstein_error>  (321) 


$$$$
C46867-P68
     RDKit          3D

 38 40  0  0  0  0  0  0  0  0999 V2000
  -11.2383  -26.7848   13.8815 O   0  0  0  0  0  0  0  0  0  0  0  0
  -10.2011  -27.0768   13.3597 C   0  0  0  0  0  0  0  0  0  0  0  0
   -9.4073  -26.3711   12.3806 N   0  0  0  0  0  0  0  0  0  0  0  0
   -9.5712  -25.0259   11.7864 C   0  0  0  0  0  0  0  0  0  0  0  0
  -10.0397  -24.9726   10.3066 C   0  0  0  0  0  0  0  0  0  0  0  0
   -9.9677  -23.6510    9.6523 N   0  0  0  0  0  0  0  0  0  0  0  0
  -10.8790  -22.9918    8.7503 C   0  0  0  0  0  0  0  0  0  0  0  0
  -11.9632  -23.3152    8.3647 O   0  0  0  0  0  0  0  0  0  0  0  0
  -10.3464  -21.7344    8.1839 C   0  0  0  0  0  0  0  0  0  0  0  0
   -9.1036  -21.3622    7.6972 C   0  0  0  0  0  0  0  0  0  0  0  0
   -9.2533  -20.0661    7.1757 C   0  0  0  0  0  0  0  0  0  0  0  0
  -10.4887  -19.5953    7.3421 N   0  0  0  0  0  0  0  0  0  0  0  0
  -11.1415  -20.6338    7.9113 N   0  0  0  0  0  0  0  0  0  0  0  0
   -9.6077  -28.3905   13.8529 C   0  0  0  0  0  0  0  0  0  0  0  0
  -10.4340  -29.5188   13.9642 C   0  0  0  0  0  0  0  0  0  0  0  0
   -9.9260  -30.7549   14.4141 C   0  0  0  0  0  0  0  0  0  0  0  0
   -8.5981  -30.9099   14.7881 C   0  0  0  0  0  0  0  0  0  0  0  0
   -8.1377  -32.1257   15.1341 N   0  0  0  0  0  0  0  0  0  0  0  0
   -6.8337  -32.2376   15.4678 C   0  0  0  0  0  0  0  0  0  0  0  0
   -5.9641  -31.1706   15.5379 C   0  0  0  0  0  0  0  0  0  0  0  0
   -6.4447  -29.9164   15.1719 C   0  0  0  0  0  0  0  0  0  0  0  0
   -7.7781  -29.7623   14.7619 C   0  0  0  0  0  0  0  0  0  0  0  0
   -8.2896  -28.5137   14.3093 C   0  0  0  0  0  0  0  0  0  0  0  0
   -8.5446  -26.8791   12.2262 H   0  0  0  0  0  0  0  0  0  0  0  0
  -10.2815  -24.4717   12.4097 H   0  0  0  0  0  0  0  0  0  0  0  0
   -8.5963  -24.5366   11.8804 H   0  0  0  0  0  0  0  0  0  0  0  0
   -9.4134  -25.6402    9.7047 H   0  0  0  0  0  0  0  0  0  0  0  0
  -11.0699  -25.3356   10.2246 H   0  0  0  0  0  0  0  0  0  0  0  0
   -9.0908  -23.1208    9.6879 H   0  0  0  0  0  0  0  0  0  0  0  0
   -8.2180  -21.9803    7.6615 H   0  0  0  0  0  0  0  0  0  0  0  0
   -8.5044  -19.4715    6.6708 H   0  0  0  0  0  0  0  0  0  0  0  0
  -12.1362  -20.5483    8.1003 H   0  0  0  0  0  0  0  0  0  0  0  0
  -11.4817  -29.4468   13.6742 H   0  0  0  0  0  0  0  0  0  0  0  0
  -10.5843  -31.6213   14.4447 H   0  0  0  0  0  0  0  0  0  0  0  0
   -6.4969  -33.2485   15.6723 H   0  0  0  0  0  0  0  0  0  0  0  0
   -4.9323  -31.3087   15.8394 H   0  0  0  0  0  0  0  0  0  0  0  0
   -5.7735  -29.0619   15.2025 H   0  0  0  0  0  0  0  0  0  0  0  0
   -7.6433  -27.6386   14.3179 H   0  0  0  0  0  0  0  0  0  0  0  0
  1  2  2  0
  2  3  1  0
  3  4  1  0
  4  5  1  0
  5  6  1  0
  6  7  1  0
  7  8  2  0
  7  9  1  0
  9 10  2  0
 10 11  1  0
 11 12  2  0
 12 13  1  0
  2 14  1  0
 14 15  2  0
 15 16  1  0
 16 17  2  0
 17 18  1  0
 18 19  2  0
 19 20  1  0
 20 21  2  0
 21 22  1  0
 22 23  2  0
 13  9  1  0
 23 14  1  0
 22 17  1  0
  3 24  1  0
  4 25  1  0
  4 26  1  0
  5 27  1  0
  5 28  1  0
  6 29  1  0
 10 30  1  0
 11 31  1  0
 13 32  1  0
 15 33  1  0
 16 34  1  0
 19 35  1  0
 20 36  1  0
 21 37  1  0
 23 38  1  0
M  END
>  <Energy>  (322) 
24.574871535963581

>  <compound_id>  (322) 
46867

>  <target_id>  (322) 
1

>  <reference_id>  (322) 
68

>  <inspiration_ids>  (322) 
[99, 68]

>  <energy_score>  (322) 
-3.9346443506518654

>  <distance_score>  (322) 
13.482216936237094

>  <path>  (322) 
/opt/xchem-fragalysis-2/maxwin/BulkDock/SCRATCH/511025/C46867-P68/C46867-P68.minimised.mol

>  <scratch_subdir>  (322) 
/opt/xchem-fragalysis-2/maxwin/BulkDock/SCRATCH/511025/C46867-P68

>  <fragmenstein_runtime>  (322) 
33.6401801109314

>  <fragmenstein_outcome>  (322) 
too moved

>  <fragmenstein_mode>  (322) 
expansion

>  <fragmenstein_error>  (322) 


$$$$
C46871-P99
     RDKit          3D

 42 44  0  0  0  0  0  0  0  0999 V2000
   -8.8462  -23.9758   12.6578 C   0  0  0  0  0  0  0  0  0  0  0  0
   -9.5310  -23.6203   13.9193 N   0  0  0  0  0  0  0  0  0  0  0  0
   -8.9883  -24.5299   15.0250 C   0  0  0  0  0  0  0  0  0  0  0  0
   -9.1786  -26.0564   14.8728 C   0  0  0  0  0  0  0  0  0  0  0  0
   -8.0599  -26.9007   14.7966 C   0  0  0  0  0  0  0  0  0  0  0  0
   -8.1954  -28.2917   14.6311 C   0  0  0  0  0  0  0  0  0  0  0  0
   -9.4351  -28.9082   14.5530 C   0  0  0  0  0  0  0  0  0  0  0  0
   -9.5204  -30.2644   14.4544 N   0  0  0  0  0  0  0  0  0  0  0  0
  -10.7449  -30.8382   14.3735 C   0  0  0  0  0  0  0  0  0  0  0  0
  -11.9132  -30.1171   14.4940 C   0  0  0  0  0  0  0  0  0  0  0  0
  -11.8244  -28.7307   14.6507 C   0  0  0  0  0  0  0  0  0  0  0  0
  -10.5735  -28.0894   14.6846 C   0  0  0  0  0  0  0  0  0  0  0  0
  -10.4366  -26.6805   14.8476 C   0  0  0  0  0  0  0  0  0  0  0  0
   -9.2307  -22.0855   14.2256 C   0  0  0  0  0  0  0  0  0  0  0  0
  -10.0993  -20.7563   13.2957 C   0  0  0  0  0  0  0  0  0  0  0  0
  -11.0332  -21.6517   12.7210 O   0  0  0  0  0  0  0  0  0  0  0  0
  -10.5791  -18.9419   13.8433 C   0  0  0  0  0  0  0  0  0  0  0  0
  -10.1048  -18.5823   15.2363 C   0  0  0  0  0  0  0  0  0  0  0  0
   -8.4987  -17.6406   14.9830 C   0  0  0  0  0  0  0  0  0  0  0  0
   -8.5144  -17.1999   13.6612 N   0  0  0  0  0  0  0  0  0  0  0  0
   -9.9062  -17.4099   13.2881 N   0  0  0  0  0  0  0  0  0  0  0  0
  -10.5290  -16.0416   13.2269 C   0  0  0  0  0  0  0  0  0  0  0  0
   -9.1221  -23.2947   11.8459 H   0  0  0  0  0  0  0  0  0  0  0  0
   -9.1410  -24.9778   12.3295 H   0  0  0  0  0  0  0  0  0  0  0  0
   -7.7552  -23.9477   12.7589 H   0  0  0  0  0  0  0  0  0  0  0  0
   -9.4319  -24.2599   15.9845 H   0  0  0  0  0  0  0  0  0  0  0  0
   -7.9153  -24.3206   15.1341 H   0  0  0  0  0  0  0  0  0  0  0  0
   -7.0552  -26.4850   14.8509 H   0  0  0  0  0  0  0  0  0  0  0  0
   -7.2999  -28.9085   14.5837 H   0  0  0  0  0  0  0  0  0  0  0  0
  -10.7520  -31.9160   14.2405 H   0  0  0  0  0  0  0  0  0  0  0  0
  -12.8782  -30.6103   14.4577 H   0  0  0  0  0  0  0  0  0  0  0  0
  -12.7382  -28.1488   14.7492 H   0  0  0  0  0  0  0  0  0  0  0  0
  -11.3301  -26.0653   14.9318 H   0  0  0  0  0  0  0  0  0  0  0  0
   -8.1468  -22.0427   14.0606 H   0  0  0  0  0  0  0  0  0  0  0  0
   -9.4001  -21.9196   15.2830 H   0  0  0  0  0  0  0  0  0  0  0  0
   -9.4909  -20.5397   12.4008 H   0  0  0  0  0  0  0  0  0  0  0  0
  -10.7728  -22.5733   12.9172 H   0  0  0  0  0  0  0  0  0  0  0  0
   -9.9198  -19.1470   16.1079 H   0  0  0  0  0  0  0  0  0  0  0  0
   -8.0107  -17.2589   15.9077 H   0  0  0  0  0  0  0  0  0  0  0  0
  -10.7174  -15.7353   12.2276 H   0  0  0  0  0  0  0  0  0  0  0  0
  -11.4065  -15.8763   13.8446 H   0  0  0  0  0  0  0  0  0  0  0  0
   -9.8698  -15.2704   13.6188 H   0  0  0  0  0  0  0  0  0  0  0  0
  1  2  1  0
  2  3  1  0
  3  4  1  0
  4  5  2  0
  5  6  1  0
  6  7  2  0
  7  8  1  0
  8  9  2  0
  9 10  1  0
 10 11  2  0
 11 12  1  0
 12 13  2  0
  2 14  1  0
 14 15  1  0
 15 16  1  0
 15 17  1  0
 17 18  2  0
 18 19  1  0
 19 20  2  0
 20 21  1  0
 21 22  1  0
 13  4  1  0
 21 17  1  0
 12  7  1  0
  1 23  1  0
  1 24  1  0
  1 25  1  0
  3 26  1  0
  3 27  1  0
  5 28  1  0
  6 29  1  0
  9 30  1  0
 10 31  1  0
 11 32  1  0
 13 33  1  0
 14 34  1  0
 14 35  1  0
 15 36  1  0
 16 37  1  0
 18 38  1  0
 19 39  1  0
 22 40  1  0
 22 41  1  0
 22 42  1  0
M  END
>  <Energy>  (323) 
333.93875296091477

>  <compound_id>  (323) 
46871

>  <target_id>  (323) 
1

>  <reference_id>  (323) 
99

>  <inspiration_ids>  (323) 
[99, 68]

>  <energy_score>  (323) 
227.48958613095613

>  <distance_score>  (323) 
13.689330072990783

>  <path>  (323) 
/opt/xchem-fragalysis-2/maxwin/BulkDock/SCRATCH/511025/C46871-P99/C46871-P99.minimised.mol

>  <scratch_subdir>  (323) 
/opt/xchem-fragalysis-2/maxwin/BulkDock/SCRATCH/511025/C46871-P99

>  <fragmenstein_runtime>  (323) 
20.068583011627197

>  <fragmenstein_outcome>  (323) 
too moved

>  <fragmenstein_mode>  (323) 
expansion

>  <fragmenstein_error>  (323) 


$$$$
C46871-P68
     RDKit          3D

 42 44  0  0  0  0  0  0  0  0999 V2000
  -13.0395  -28.8902   14.5664 C   0  0  0  0  0  0  0  0  0  0  0  0
  -12.1937  -28.5327   15.7199 N   0  0  0  0  0  0  0  0  0  0  0  0
  -12.9335  -28.9079   16.9966 C   0  0  0  0  0  0  0  0  0  0  0  0
  -12.8528  -30.3856   17.5231 C   0  0  0  0  0  0  0  0  0  0  0  0
  -12.7311  -31.5326   16.7369 C   0  0  0  0  0  0  0  0  0  0  0  0
  -12.5529  -32.8151   17.3176 C   0  0  0  0  0  0  0  0  0  0  0  0
  -12.4430  -33.0246   18.6894 C   0  0  0  0  0  0  0  0  0  0  0  0
  -12.1921  -34.2619   19.1859 N   0  0  0  0  0  0  0  0  0  0  0  0
  -11.9793  -34.3909   20.5125 C   0  0  0  0  0  0  0  0  0  0  0  0
  -12.0510  -33.3361   21.3967 C   0  0  0  0  0  0  0  0  0  0  0  0
  -12.3701  -32.0797   20.8856 C   0  0  0  0  0  0  0  0  0  0  0  0
  -12.5641  -31.8925   19.5061 C   0  0  0  0  0  0  0  0  0  0  0  0
  -12.8189  -30.6167   18.9189 C   0  0  0  0  0  0  0  0  0  0  0  0
  -11.8697  -27.0006   15.6008 C   0  0  0  0  0  0  0  0  0  0  0  0
  -11.1298  -26.4618   14.2575 C   0  0  0  0  0  0  0  0  0  0  0  0
  -11.9908  -26.6854   13.1324 O   0  0  0  0  0  0  0  0  0  0  0  0
  -10.6920  -24.9657   14.0804 C   0  0  0  0  0  0  0  0  0  0  0  0
  -11.2310  -23.9301   13.3098 C   0  0  0  0  0  0  0  0  0  0  0  0
  -10.2888  -22.8810   13.3204 C   0  0  0  0  0  0  0  0  0  0  0  0
   -9.2085  -23.1989   14.0248 N   0  0  0  0  0  0  0  0  0  0  0  0
   -9.4967  -24.4246   14.5267 N   0  0  0  0  0  0  0  0  0  0  0  0
   -8.5174  -25.0481   15.3871 C   0  0  0  0  0  0  0  0  0  0  0  0
  -13.5361  -29.8554   14.6820 H   0  0  0  0  0  0  0  0  0  0  0  0
  -13.8364  -28.1567   14.3972 H   0  0  0  0  0  0  0  0  0  0  0  0
  -12.4267  -28.9851   13.6655 H   0  0  0  0  0  0  0  0  0  0  0  0
  -13.9944  -28.6390   16.9100 H   0  0  0  0  0  0  0  0  0  0  0  0
  -12.5204  -28.2741   17.7921 H   0  0  0  0  0  0  0  0  0  0  0  0
  -12.7200  -31.4743   15.6543 H   0  0  0  0  0  0  0  0  0  0  0  0
  -12.4400  -33.6740   16.6592 H   0  0  0  0  0  0  0  0  0  0  0  0
  -11.7467  -35.3965   20.8491 H   0  0  0  0  0  0  0  0  0  0  0  0
  -11.8720  -33.4850   22.4549 H   0  0  0  0  0  0  0  0  0  0  0  0
  -12.4287  -31.2384   21.5634 H   0  0  0  0  0  0  0  0  0  0  0  0
  -12.9031  -29.7520   19.5596 H   0  0  0  0  0  0  0  0  0  0  0  0
  -11.2283  -26.7479   16.4523 H   0  0  0  0  0  0  0  0  0  0  0  0
  -12.8133  -26.4520   15.7137 H   0  0  0  0  0  0  0  0  0  0  0  0
  -10.2420  -27.0892   14.1081 H   0  0  0  0  0  0  0  0  0  0  0  0
  -11.4503  -26.5158   12.3418 H   0  0  0  0  0  0  0  0  0  0  0  0
  -12.1750  -23.9611   12.7845 H   0  0  0  0  0  0  0  0  0  0  0  0
  -10.3319  -21.9121   12.8533 H   0  0  0  0  0  0  0  0  0  0  0  0
   -8.2949  -24.3606   16.2074 H   0  0  0  0  0  0  0  0  0  0  0  0
   -8.9125  -25.9820   15.7885 H   0  0  0  0  0  0  0  0  0  0  0  0
   -7.6193  -25.2449   14.7965 H   0  0  0  0  0  0  0  0  0  0  0  0
  1  2  1  0
  2  3  1  0
  3  4  1  0
  4  5  2  0
  5  6  1  0
  6  7  2  0
  7  8  1  0
  8  9  2  0
  9 10  1  0
 10 11  2  0
 11 12  1  0
 12 13  2  0
  2 14  1  0
 14 15  1  0
 15 16  1  0
 15 17  1  0
 17 18  2  0
 18 19  1  0
 19 20  2  0
 20 21  1  0
 21 22  1  0
 13  4  1  0
 21 17  1  0
 12  7  1  0
  1 23  1  0
  1 24  1  0
  1 25  1  0
  3 26  1  0
  3 27  1  0
  5 28  1  0
  6 29  1  0
  9 30  1  0
 10 31  1  0
 11 32  1  0
 13 33  1  0
 14 34  1  0
 14 35  1  0
 15 36  1  0
 16 37  1  0
 18 38  1  0
 19 39  1  0
 22 40  1  0
 22 41  1  0
 22 42  1  0
M  END
>  <Energy>  (324) 
94.425874485364304

>  <compound_id>  (324) 
46871

>  <target_id>  (324) 
1

>  <reference_id>  (324) 
68

>  <inspiration_ids>  (324) 
[99, 68]

>  <energy_score>  (324) 
-12.023292344592278

>  <distance_score>  (324) 
13.643754689570006

>  <path>  (324) 
/opt/xchem-fragalysis-2/maxwin/BulkDock/SCRATCH/511025/C46871-P68/C46871-P68.minimised.mol

>  <scratch_subdir>  (324) 
/opt/xchem-fragalysis-2/maxwin/BulkDock/SCRATCH/511025/C46871-P68

>  <fragmenstein_runtime>  (324) 
34.216424226760864

>  <fragmenstein_outcome>  (324) 
too moved

>  <fragmenstein_mode>  (324) 
expansion

>  <fragmenstein_error>  (324) 


$$$$
C46879-P99
     RDKit          3D

 38 40  0  0  0  0  0  0  0  0999 V2000
   -6.3017  -25.9191   13.1979 C   0  0  0  0  0  0  0  0  0  0  0  0
   -7.6912  -25.8706   13.6688 N   0  0  0  0  0  0  0  0  0  0  0  0
   -7.8777  -26.7469   14.8806 C   0  0  0  0  0  0  0  0  0  0  0  0
   -7.3938  -28.2109   14.8075 C   0  0  0  0  0  0  0  0  0  0  0  0
   -6.1127  -28.5608   15.2696 C   0  0  0  0  0  0  0  0  0  0  0  0
   -5.7033  -29.9089   15.3706 C   0  0  0  0  0  0  0  0  0  0  0  0
   -6.5421  -30.9627   15.0358 C   0  0  0  0  0  0  0  0  0  0  0  0
   -6.1262  -32.2379   15.2089 N   0  0  0  0  0  0  0  0  0  0  0  0
   -6.9621  -33.2336   14.8520 C   0  0  0  0  0  0  0  0  0  0  0  0
   -8.2226  -33.0192   14.3292 C   0  0  0  0  0  0  0  0  0  0  0  0
   -8.6475  -31.7028   14.1503 C   0  0  0  0  0  0  0  0  0  0  0  0
   -7.8132  -30.6334   14.5132 C   0  0  0  0  0  0  0  0  0  0  0  0
   -8.2196  -29.2686   14.3878 C   0  0  0  0  0  0  0  0  0  0  0  0
   -8.0522  -24.4216   13.9818 C   0  0  0  0  0  0  0  0  0  0  0  0
   -7.8424  -23.3397   12.8630 C   0  0  0  0  0  0  0  0  0  0  0  0
   -8.7845  -22.8351   11.9118 C   0  0  0  0  0  0  0  0  0  0  0  0
   -8.1113  -21.8968   11.1587 C   0  0  0  0  0  0  0  0  0  0  0  0
   -6.8592  -21.8455   11.6836 N   0  0  0  0  0  0  0  0  0  0  0  0
   -5.7639  -21.0501   11.1932 C   0  0  0  0  0  0  0  0  0  0  0  0
   -6.6852  -22.6521   12.7540 N   0  0  0  0  0  0  0  0  0  0  0  0
   -6.1709  -25.3311   12.2839 H   0  0  0  0  0  0  0  0  0  0  0  0
   -5.5958  -25.5560   13.9533 H   0  0  0  0  0  0  0  0  0  0  0  0
   -6.0162  -26.9362   12.9106 H   0  0  0  0  0  0  0  0  0  0  0  0
   -7.3853  -26.2816   15.7459 H   0  0  0  0  0  0  0  0  0  0  0  0
   -8.9487  -26.7668   15.1202 H   0  0  0  0  0  0  0  0  0  0  0  0
   -5.4283  -27.7877   15.6126 H   0  0  0  0  0  0  0  0  0  0  0  0
   -4.7188  -30.1332   15.7731 H   0  0  0  0  0  0  0  0  0  0  0  0
   -6.5777  -34.2375   15.0048 H   0  0  0  0  0  0  0  0  0  0  0  0
   -8.8577  -33.8537   14.0548 H   0  0  0  0  0  0  0  0  0  0  0  0
   -9.6311  -31.5159   13.7267 H   0  0  0  0  0  0  0  0  0  0  0  0
   -9.2075  -29.0333   13.9953 H   0  0  0  0  0  0  0  0  0  0  0  0
   -7.4869  -24.0883   14.8630 H   0  0  0  0  0  0  0  0  0  0  0  0
   -9.1161  -24.3966   14.2490 H   0  0  0  0  0  0  0  0  0  0  0  0
   -9.8076  -23.1575   11.7826 H   0  0  0  0  0  0  0  0  0  0  0  0
   -8.3935  -21.3030   10.3024 H   0  0  0  0  0  0  0  0  0  0  0  0
   -5.8078  -21.0267   10.1018 H   0  0  0  0  0  0  0  0  0  0  0  0
   -4.8177  -21.4895   11.5181 H   0  0  0  0  0  0  0  0  0  0  0  0
   -5.8895  -20.0527   11.6131 H   0  0  0  0  0  0  0  0  0  0  0  0
  1  2  1  0
  2  3  1  0
  3  4  1  0
  4  5  2  0
  5  6  1  0
  6  7  2  0
  7  8  1  0
  8  9  2  0
  9 10  1  0
 10 11  2  0
 11 12  1  0
 12 13  2  0
  2 14  1  0
 14 15  1  0
 15 16  1  0
 16 17  2  0
 17 18  1  0
 18 19  1  0
 18 20  1  0
 13  4  1  0
 20 15  2  0
 12  7  1  0
  1 21  1  0
  1 22  1  0
  1 23  1  0
  3 24  1  0
  3 25  1  0
  5 26  1  0
  6 27  1  0
  9 28  1  0
 10 29  1  0
 11 30  1  0
 13 31  1  0
 14 32  1  0
 14 33  1  0
 16 34  1  0
 17 35  1  0
 19 36  1  0
 19 37  1  0
 19 38  1  0
M  END
>  <Energy>  (325) 
75.940563117015301

>  <compound_id>  (325) 
46879

>  <target_id>  (325) 
1

>  <reference_id>  (325) 
99

>  <inspiration_ids>  (325) 
[99, 68]

>  <energy_score>  (325) 
-11.264286026106276

>  <distance_score>  (325) 
14.266730651971681

>  <path>  (325) 
/opt/xchem-fragalysis-2/maxwin/BulkDock/SCRATCH/511025/C46879-P99/C46879-P99.minimised.mol

>  <scratch_subdir>  (325) 
/opt/xchem-fragalysis-2/maxwin/BulkDock/SCRATCH/511025/C46879-P99

>  <fragmenstein_runtime>  (325) 
14.672342538833618

>  <fragmenstein_outcome>  (325) 
too moved

>  <fragmenstein_mode>  (325) 
expansion

>  <fragmenstein_error>  (325) 


$$$$
C46879-P68
     RDKit          3D

 38 40  0  0  0  0  0  0  0  0999 V2000
  -13.8189  -25.6878   15.7317 C   0  0  0  0  0  0  0  0  0  0  0  0
  -12.5037  -25.8881   16.3499 N   0  0  0  0  0  0  0  0  0  0  0  0
  -12.6370  -26.8487   17.5152 C   0  0  0  0  0  0  0  0  0  0  0  0
  -12.8741  -28.3638   17.3127 C   0  0  0  0  0  0  0  0  0  0  0  0
  -12.7769  -29.0720   16.1212 C   0  0  0  0  0  0  0  0  0  0  0  0
  -12.7974  -30.4948   16.1189 C   0  0  0  0  0  0  0  0  0  0  0  0
  -12.8617  -31.2703   17.2822 C   0  0  0  0  0  0  0  0  0  0  0  0
  -12.7447  -32.6176   17.2257 N   0  0  0  0  0  0  0  0  0  0  0  0
  -12.7041  -33.3106   18.3865 C   0  0  0  0  0  0  0  0  0  0  0  0
  -12.8262  -32.7263   19.6283 C   0  0  0  0  0  0  0  0  0  0  0  0
  -12.9955  -31.3456   19.6755 C   0  0  0  0  0  0  0  0  0  0  0  0
  -12.9959  -30.5796   18.4934 C   0  0  0  0  0  0  0  0  0  0  0  0
  -13.0392  -29.1539   18.4742 C   0  0  0  0  0  0  0  0  0  0  0  0
  -12.0123  -24.5404   16.8893 C   0  0  0  0  0  0  0  0  0  0  0  0
  -11.8615  -23.2910   15.9479 C   0  0  0  0  0  0  0  0  0  0  0  0
  -11.1475  -23.1375   14.7236 C   0  0  0  0  0  0  0  0  0  0  0  0
  -11.1693  -21.7907   14.4315 C   0  0  0  0  0  0  0  0  0  0  0  0
  -11.8644  -21.2032   15.4382 N   0  0  0  0  0  0  0  0  0  0  0  0
  -12.0916  -19.7974   15.6505 C   0  0  0  0  0  0  0  0  0  0  0  0
  -12.3096  -22.0825   16.3599 N   0  0  0  0  0  0  0  0  0  0  0  0
  -13.7400  -25.0362   14.8550 H   0  0  0  0  0  0  0  0  0  0  0  0
  -14.2323  -26.6335   15.3673 H   0  0  0  0  0  0  0  0  0  0  0  0
  -14.5429  -25.2463   16.4263 H   0  0  0  0  0  0  0  0  0  0  0  0
  -11.6910  -26.7910   18.0630 H   0  0  0  0  0  0  0  0  0  0  0  0
  -13.4219  -26.4782   18.1893 H   0  0  0  0  0  0  0  0  0  0  0  0
  -12.6291  -28.5430   15.1820 H   0  0  0  0  0  0  0  0  0  0  0  0
  -12.6946  -31.0126   15.1665 H   0  0  0  0  0  0  0  0  0  0  0  0
  -12.5696  -34.3821   18.2781 H   0  0  0  0  0  0  0  0  0  0  0  0
  -12.7894  -33.3233   20.5309 H   0  0  0  0  0  0  0  0  0  0  0  0
  -13.0796  -30.8695   20.6438 H   0  0  0  0  0  0  0  0  0  0  0  0
  -13.0797  -28.6073   19.3999 H   0  0  0  0  0  0  0  0  0  0  0  0
  -12.6631  -24.2392   17.7224 H   0  0  0  0  0  0  0  0  0  0  0  0
  -11.0108  -24.7059   17.3073 H   0  0  0  0  0  0  0  0  0  0  0  0
  -10.6530  -23.9161   14.1601 H   0  0  0  0  0  0  0  0  0  0  0  0
  -10.7468  -21.2293   13.6168 H   0  0  0  0  0  0  0  0  0  0  0  0
  -13.1617  -19.6021   15.5545 H   0  0  0  0  0  0  0  0  0  0  0  0
  -11.7450  -19.5359   16.6539 H   0  0  0  0  0  0  0  0  0  0  0  0
  -11.5266  -19.2288   14.9126 H   0  0  0  0  0  0  0  0  0  0  0  0
  1  2  1  0
  2  3  1  0
  3  4  1  0
  4  5  2  0
  5  6  1  0
  6  7  2  0
  7  8  1  0
  8  9  2  0
  9 10  1  0
 10 11  2  0
 11 12  1  0
 12 13  2  0
  2 14  1  0
 14 15  1  0
 15 16  1  0
 16 17  2  0
 17 18  1  0
 18 19  1  0
 18 20  1  0
 13  4  1  0
 20 15  2  0
 12  7  1  0
  1 21  1  0
  1 22  1  0
  1 23  1  0
  3 24  1  0
  3 25  1  0
  5 26  1  0
  6 27  1  0
  9 28  1  0
 10 29  1  0
 11 30  1  0
 13 31  1  0
 14 32  1  0
 14 33  1  0
 16 34  1  0
 17 35  1  0
 19 36  1  0
 19 37  1  0
 19 38  1  0
M  END
>  <Energy>  (326) 
81.127992505295566

>  <compound_id>  (326) 
46879

>  <target_id>  (326) 
1

>  <reference_id>  (326) 
68

>  <inspiration_ids>  (326) 
[99, 68]

>  <energy_score>  (326) 
-6.076856637824449

>  <distance_score>  (326) 
13.99616017733866

>  <path>  (326) 
/opt/xchem-fragalysis-2/maxwin/BulkDock/SCRATCH/511025/C46879-P68/C46879-P68.minimised.mol

>  <scratch_subdir>  (326) 
/opt/xchem-fragalysis-2/maxwin/BulkDock/SCRATCH/511025/C46879-P68

>  <fragmenstein_runtime>  (326) 
20.335678339004517

>  <fragmenstein_outcome>  (326) 
too moved

>  <fragmenstein_mode>  (326) 
expansion

>  <fragmenstein_error>  (326) 


$$$$
C46880-P99
     RDKit          3D

 39 41  0  0  0  0  0  0  0  0999 V2000
   -3.2566  -17.6549    7.7002 C   0  0  0  0  0  0  0  0  0  0  0  0
   -4.6436  -17.2763    8.1858 C   0  0  0  0  0  0  0  0  0  0  0  0
   -4.9335  -17.8289    9.4948 N   0  0  0  0  0  0  0  0  0  0  0  0
   -4.7978  -17.1938   10.6903 C   0  0  0  0  0  0  0  0  0  0  0  0
   -5.1431  -18.1303   11.6408 C   0  0  0  0  0  0  0  0  0  0  0  0
   -5.5157  -19.3142   10.9313 C   0  0  0  0  0  0  0  0  0  0  0  0
   -5.7982  -20.7451   11.4825 C   0  0  0  0  0  0  0  0  0  0  0  0
   -7.2081  -21.1281   11.8571 N   0  0  0  0  0  0  0  0  0  0  0  0
   -8.3242  -20.3524   11.4302 C   0  0  0  0  0  0  0  0  0  0  0  0
   -7.6372  -22.4451   12.4689 C   0  0  0  0  0  0  0  0  0  0  0  0
   -8.8149  -23.7318   12.4032 C   0  0  0  0  0  0  0  0  0  0  0  0
   -8.5065  -24.8799   11.4849 C   0  0  0  0  0  0  0  0  0  0  0  0
   -8.9463  -26.1310   11.7163 C   0  0  0  0  0  0  0  0  0  0  0  0
   -9.7278  -26.4211   12.8219 N   0  0  0  0  0  0  0  0  0  0  0  0
  -10.1657  -27.6515   13.2003 N   0  0  0  0  0  0  0  0  0  0  0  0
  -10.7567  -27.4559   14.3747 C   0  0  0  0  0  0  0  0  0  0  0  0
  -10.7617  -26.1011   14.7403 C   0  0  0  0  0  0  0  0  0  0  0  0
  -10.1148  -25.4201   13.7184 C   0  0  0  0  0  0  0  0  0  0  0  0
   -9.6513  -24.0417   13.4552 C   0  0  0  0  0  0  0  0  0  0  0  0
   -5.4134  -19.0936    9.6027 N   0  0  0  0  0  0  0  0  0  0  0  0
   -3.0671  -17.2200    6.7141 H   0  0  0  0  0  0  0  0  0  0  0  0
   -3.1484  -18.7419    7.6209 H   0  0  0  0  0  0  0  0  0  0  0  0
   -2.4855  -17.2924    8.3882 H   0  0  0  0  0  0  0  0  0  0  0  0
   -4.7433  -16.1874    8.2538 H   0  0  0  0  0  0  0  0  0  0  0  0
   -5.4116  -17.6406    7.4947 H   0  0  0  0  0  0  0  0  0  0  0  0
   -4.4370  -16.1785   10.7736 H   0  0  0  0  0  0  0  0  0  0  0  0
   -5.0814  -18.0003   12.7106 H   0  0  0  0  0  0  0  0  0  0  0  0
   -5.1000  -20.9230   12.2893 H   0  0  0  0  0  0  0  0  0  0  0  0
   -5.3951  -21.4377   10.7287 H   0  0  0  0  0  0  0  0  0  0  0  0
   -8.3474  -20.1510   10.3630 H   0  0  0  0  0  0  0  0  0  0  0  0
   -8.4934  -19.4148   11.9276 H   0  0  0  0  0  0  0  0  0  0  0  0
   -9.1764  -20.9542   11.7357 H   0  0  0  0  0  0  0  0  0  0  0  0
   -6.7904  -23.0394   12.1101 H   0  0  0  0  0  0  0  0  0  0  0  0
   -7.7414  -22.1757   13.5114 H   0  0  0  0  0  0  0  0  0  0  0  0
   -7.8557  -24.7269   10.6287 H   0  0  0  0  0  0  0  0  0  0  0  0
   -8.7019  -26.9688   11.0771 H   0  0  0  0  0  0  0  0  0  0  0  0
  -11.1649  -28.3045   14.9078 H   0  0  0  0  0  0  0  0  0  0  0  0
  -11.1753  -25.7117   15.6520 H   0  0  0  0  0  0  0  0  0  0  0  0
   -9.7310  -23.3207   14.2602 H   0  0  0  0  0  0  0  0  0  0  0  0
  1  2  1  0
  2  3  1  0
  3  4  1  0
  4  5  2  0
  5  6  1  0
  6  7  1  0
  7  8  1  0
  8  9  1  0
  8 10  1  0
 10 11  1  0
 11 12  1  0
 12 13  2  0
 13 14  1  0
 14 15  1  0
 15 16  2  0
 16 17  1  0
 17 18  2  0
 18 19  1  0
  6 20  2  0
 20  3  1  0
 19 11  2  0
 18 14  1  0
  1 21  1  0
  1 22  1  0
  1 23  1  0
  2 24  1  0
  2 25  1  0
  4 26  1  0
  5 27  1  0
  7 28  1  0
  7 29  1  0
  9 30  1  0
  9 31  1  0
  9 32  1  0
 10 33  1  0
 10 34  1  0
 12 35  1  0
 13 36  1  0
 16 37  1  0
 17 38  1  0
 19 39  1  0
M  END
>  <Energy>  (327) 
132.13370912068712

>  <compound_id>  (327) 
46880

>  <target_id>  (327) 
1

>  <reference_id>  (327) 
99

>  <inspiration_ids>  (327) 
[99, 68]

>  <energy_score>  (327) 
44.51544035677557

>  <distance_score>  (327) 
15.222229927507945

>  <path>  (327) 
/opt/xchem-fragalysis-2/maxwin/BulkDock/SCRATCH/511025/C46880-P99/C46880-P99.minimised.mol

>  <scratch_subdir>  (327) 
/opt/xchem-fragalysis-2/maxwin/BulkDock/SCRATCH/511025/C46880-P99

>  <fragmenstein_runtime>  (327) 
20.653646230697632

>  <fragmenstein_outcome>  (327) 
too moved

>  <fragmenstein_mode>  (327) 
expansion

>  <fragmenstein_error>  (327) 


$$$$
C46880-P68
     RDKit          3D

 39 41  0  0  0  0  0  0  0  0999 V2000
  -10.1669  -11.2804   13.7478 C   0  0  0  0  0  0  0  0  0  0  0  0
  -10.1842  -12.2481   12.5744 C   0  0  0  0  0  0  0  0  0  0  0  0
  -10.7311  -13.5447   12.8876 N   0  0  0  0  0  0  0  0  0  0  0  0
  -11.8663  -13.8038   13.5260 C   0  0  0  0  0  0  0  0  0  0  0  0
  -11.7174  -15.1469   13.7980 C   0  0  0  0  0  0  0  0  0  0  0  0
  -10.5904  -15.7629   13.1323 C   0  0  0  0  0  0  0  0  0  0  0  0
   -9.8518  -17.4843   13.1849 C   0  0  0  0  0  0  0  0  0  0  0  0
   -9.7503  -19.2732   12.6100 N   0  0  0  0  0  0  0  0  0  0  0  0
   -8.6841  -19.9049   11.7972 C   0  0  0  0  0  0  0  0  0  0  0  0
  -10.5085  -20.6512   13.5125 C   0  0  0  0  0  0  0  0  0  0  0  0
  -10.1733  -22.3911   13.3921 C   0  0  0  0  0  0  0  0  0  0  0  0
  -10.2500  -23.1022   12.1126 C   0  0  0  0  0  0  0  0  0  0  0  0
  -10.1393  -24.4382   11.9848 C   0  0  0  0  0  0  0  0  0  0  0  0
  -10.0695  -25.2567   13.0914 N   0  0  0  0  0  0  0  0  0  0  0  0
  -10.0313  -26.6142   13.1075 N   0  0  0  0  0  0  0  0  0  0  0  0
  -10.2778  -26.9378   14.3728 C   0  0  0  0  0  0  0  0  0  0  0  0
  -10.4045  -25.7985   15.1810 C   0  0  0  0  0  0  0  0  0  0  0  0
  -10.1181  -24.7084   14.3657 C   0  0  0  0  0  0  0  0  0  0  0  0
   -9.9824  -23.2400   14.4618 C   0  0  0  0  0  0  0  0  0  0  0  0
  -10.0422  -14.6448   12.6201 N   0  0  0  0  0  0  0  0  0  0  0  0
   -9.6415  -11.7098   14.6060 H   0  0  0  0  0  0  0  0  0  0  0  0
  -11.1809  -11.0223   14.0693 H   0  0  0  0  0  0  0  0  0  0  0  0
   -9.6579  -10.3541   13.4660 H   0  0  0  0  0  0  0  0  0  0  0  0
   -9.1556  -12.4061   12.2355 H   0  0  0  0  0  0  0  0  0  0  0  0
  -10.7812  -11.8486   11.7483 H   0  0  0  0  0  0  0  0  0  0  0  0
  -12.5676  -13.0599   13.8756 H   0  0  0  0  0  0  0  0  0  0  0  0
  -12.3493  -15.6447   14.4963 H   0  0  0  0  0  0  0  0  0  0  0  0
  -10.5996  -17.7872   13.9112 H   0  0  0  0  0  0  0  0  0  0  0  0
   -8.8327  -17.2290   13.4835 H   0  0  0  0  0  0  0  0  0  0  0  0
   -8.8860  -19.9097   10.7346 H   0  0  0  0  0  0  0  0  0  0  0  0
   -8.6775  -20.9572   12.0417 H   0  0  0  0  0  0  0  0  0  0  0  0
   -7.6364  -19.6487   11.9950 H   0  0  0  0  0  0  0  0  0  0  0  0
  -11.5746  -20.5477   13.4637 H   0  0  0  0  0  0  0  0  0  0  0  0
  -10.3080  -20.4401   14.5579 H   0  0  0  0  0  0  0  0  0  0  0  0
  -10.3124  -22.5307   11.2039 H   0  0  0  0  0  0  0  0  0  0  0  0
  -10.1387  -24.9328   11.0215 H   0  0  0  0  0  0  0  0  0  0  0  0
  -10.3784  -27.9810   14.6426 H   0  0  0  0  0  0  0  0  0  0  0  0
  -10.6894  -25.8344   16.2138 H   0  0  0  0  0  0  0  0  0  0  0  0
   -9.8062  -22.8098   15.4383 H   0  0  0  0  0  0  0  0  0  0  0  0
  1  2  1  0
  2  3  1  0
  3  4  1  0
  4  5  2  0
  5  6  1  0
  6  7  1  0
  7  8  1  0
  8  9  1  0
  8 10  1  0
 10 11  1  0
 11 12  1  0
 12 13  2  0
 13 14  1  0
 14 15  1  0
 15 16  2  0
 16 17  1  0
 17 18  2  0
 18 19  1  0
  6 20  2  0
 20  3  1  0
 19 11  2  0
 18 14  1  0
  1 21  1  0
  1 22  1  0
  1 23  1  0
  2 24  1  0
  2 25  1  0
  4 26  1  0
  5 27  1  0
  7 28  1  0
  7 29  1  0
  9 30  1  0
  9 31  1  0
  9 32  1  0
 10 33  1  0
 10 34  1  0
 12 35  1  0
 13 36  1  0
 16 37  1  0
 17 38  1  0
 19 39  1  0
M  END
>  <Energy>  (328) 
300.82681008830554

>  <compound_id>  (328) 
46880

>  <target_id>  (328) 
1

>  <reference_id>  (328) 
68

>  <inspiration_ids>  (328) 
[99, 68]

>  <energy_score>  (328) 
213.20854132439308

>  <distance_score>  (328) 
14.786145733990892

>  <path>  (328) 
/opt/xchem-fragalysis-2/maxwin/BulkDock/SCRATCH/511025/C46880-P68/C46880-P68.minimised.mol

>  <scratch_subdir>  (328) 
/opt/xchem-fragalysis-2/maxwin/BulkDock/SCRATCH/511025/C46880-P68

>  <fragmenstein_runtime>  (328) 
24.82641863822937

>  <fragmenstein_outcome>  (328) 
too moved

>  <fragmenstein_mode>  (328) 
expansion

>  <fragmenstein_error>  (328) 


$$$$
C46881-P99
     RDKit          3D

 42 44  0  0  0  0  0  0  0  0999 V2000
   -7.2695  -10.0164   10.2390 C   0  0  0  0  0  0  0  0  0  0  0  0
   -8.0248  -11.2065   10.8028 C   0  0  0  0  0  0  0  0  0  0  0  0
   -9.2328  -10.7804   11.6462 C   0  0  0  0  0  0  0  0  0  0  0  0
   -9.9563  -11.9652   12.1802 C   0  0  0  0  0  0  0  0  0  0  0  0
   -9.5091  -13.0530   12.8921 C   0  0  0  0  0  0  0  0  0  0  0  0
  -10.5642  -14.0124   12.9023 C   0  0  0  0  0  0  0  0  0  0  0  0
  -10.6001  -15.6658   13.4031 C   0  0  0  0  0  0  0  0  0  0  0  0
   -9.8672  -17.2403   13.1945 N   0  0  0  0  0  0  0  0  0  0  0  0
   -8.4589  -17.1175   13.5326 C   0  0  0  0  0  0  0  0  0  0  0  0
  -10.5925  -18.8207   13.7766 C   0  0  0  0  0  0  0  0  0  0  0  0
  -10.2014  -20.7027   13.4346 C   0  0  0  0  0  0  0  0  0  0  0  0
   -9.5834  -21.6247   14.5858 C   0  0  0  0  0  0  0  0  0  0  0  0
   -9.3289  -22.9442   14.5460 C   0  0  0  0  0  0  0  0  0  0  0  0
   -9.6700  -23.6698   13.4594 N   0  0  0  0  0  0  0  0  0  0  0  0
   -9.8008  -25.0119   13.3290 N   0  0  0  0  0  0  0  0  0  0  0  0
  -10.1182  -25.1701   12.0484 C   0  0  0  0  0  0  0  0  0  0  0  0
  -10.1783  -23.9372   11.3683 C   0  0  0  0  0  0  0  0  0  0  0  0
   -9.9087  -22.9712   12.3159 C   0  0  0  0  0  0  0  0  0  0  0  0
   -9.7680  -21.5071   12.3883 C   0  0  0  0  0  0  0  0  0  0  0  0
  -11.6826  -13.4233   12.4253 N   0  0  0  0  0  0  0  0  0  0  0  0
  -11.2880  -12.1920   12.0173 N   0  0  0  0  0  0  0  0  0  0  0  0
   -7.9130   -9.4227    9.5850 H   0  0  0  0  0  0  0  0  0  0  0  0
   -6.4127  -10.3561    9.6487 H   0  0  0  0  0  0  0  0  0  0  0  0
   -6.8938   -9.3743   11.0412 H   0  0  0  0  0  0  0  0  0  0  0  0
   -8.3551  -11.8451    9.9741 H   0  0  0  0  0  0  0  0  0  0  0  0
   -7.3320  -11.8055   11.4064 H   0  0  0  0  0  0  0  0  0  0  0  0
   -9.9094  -10.1842   11.0261 H   0  0  0  0  0  0  0  0  0  0  0  0
   -8.9023  -10.1555   12.4832 H   0  0  0  0  0  0  0  0  0  0  0  0
   -8.4954  -13.1891   13.2110 H   0  0  0  0  0  0  0  0  0  0  0  0
  -10.4213  -15.7351   12.3618 H   0  0  0  0  0  0  0  0  0  0  0  0
   -9.7884  -15.2765   13.9930 H   0  0  0  0  0  0  0  0  0  0  0  0
   -7.9445  -16.2278   13.9075 H   0  0  0  0  0  0  0  0  0  0  0  0
   -7.9183  -17.5972   12.7446 H   0  0  0  0  0  0  0  0  0  0  0  0
   -8.2439  -17.5065   14.5100 H   0  0  0  0  0  0  0  0  0  0  0  0
  -10.4120  -18.7218   14.8682 H   0  0  0  0  0  0  0  0  0  0  0  0
  -11.6150  -18.5882   13.7974 H   0  0  0  0  0  0  0  0  0  0  0  0
   -9.5204  -21.1679   15.5543 H   0  0  0  0  0  0  0  0  0  0  0  0
   -9.0064  -23.5116   15.3760 H   0  0  0  0  0  0  0  0  0  0  0  0
  -10.2763  -26.1656   11.6554 H   0  0  0  0  0  0  0  0  0  0  0  0
  -10.3823  -23.7698   10.3204 H   0  0  0  0  0  0  0  0  0  0  0  0
   -9.1838  -21.0391   11.6140 H   0  0  0  0  0  0  0  0  0  0  0  0
  -11.9781  -11.5771   11.5990 H   0  0  0  0  0  0  0  0  0  0  0  0
  1  2  1  0
  2  3  1  0
  3  4  1  0
  4  5  2  0
  5  6  1  0
  6  7  1  0
  7  8  1  0
  8  9  1  0
  8 10  1  0
 10 11  1  0
 11 12  1  0
 12 13  2  0
 13 14  1  0
 14 15  1  0
 15 16  2  0
 16 17  1  0
 17 18  2  0
 18 19  1  0
  6 20  2  0
 20 21  1  0
 21  4  1  0
 19 11  2  0
 18 14  1  0
  1 22  1  0
  1 23  1  0
  1 24  1  0
  2 25  1  0
  2 26  1  0
  3 27  1  0
  3 28  1  0
  5 29  1  0
  7 30  1  0
  7 31  1  0
  9 32  1  0
  9 33  1  0
  9 34  1  0
 10 35  1  0
 10 36  1  0
 12 37  1  0
 13 38  1  0
 16 39  1  0
 17 40  1  0
 19 41  1  0
 21 42  1  0
M  END
>  <Energy>  (329) 
350.85223095982224

>  <compound_id>  (329) 
46881

>  <target_id>  (329) 
1

>  <reference_id>  (329) 
99

>  <inspiration_ids>  (329) 
[99, 68]

>  <energy_score>  (329) 
262.13229063055826

>  <distance_score>  (329) 
14.918182068426095

>  <path>  (329) 
/opt/xchem-fragalysis-2/maxwin/BulkDock/SCRATCH/511025/C46881-P99/C46881-P99.minimised.mol

>  <scratch_subdir>  (329) 
/opt/xchem-fragalysis-2/maxwin/BulkDock/SCRATCH/511025/C46881-P99

>  <fragmenstein_runtime>  (329) 
19.30203413963318

>  <fragmenstein_outcome>  (329) 
too moved

>  <fragmenstein_mode>  (329) 
expansion

>  <fragmenstein_error>  (329) 


$$$$
C46881-P68
     RDKit          3D

 42 44  0  0  0  0  0  0  0  0999 V2000
   -9.1759  -18.3042    3.3412 C   0  0  0  0  0  0  0  0  0  0  0  0
   -9.4057  -19.0561    4.6427 C   0  0  0  0  0  0  0  0  0  0  0  0
   -9.3742  -18.1140    5.8461 C   0  0  0  0  0  0  0  0  0  0  0  0
   -9.5910  -18.8498    7.1172 C   0  0  0  0  0  0  0  0  0  0  0  0
   -8.7233  -19.4192    8.0174 C   0  0  0  0  0  0  0  0  0  0  0  0
   -9.5487  -19.9716    9.1928 C   0  0  0  0  0  0  0  0  0  0  0  0
   -8.9254  -20.2588   10.9782 C   0  0  0  0  0  0  0  0  0  0  0  0
   -9.1840  -21.6265   12.1206 N   0  0  0  0  0  0  0  0  0  0  0  0
   -7.9570  -21.9477   12.9252 C   0  0  0  0  0  0  0  0  0  0  0  0
  -10.1588  -22.7883   12.1461 C   0  0  0  0  0  0  0  0  0  0  0  0
   -9.8482  -24.2535   12.8146 C   0  0  0  0  0  0  0  0  0  0  0  0
   -9.1025  -25.2713   12.0533 C   0  0  0  0  0  0  0  0  0  0  0  0
   -8.9364  -26.5248   12.5346 C   0  0  0  0  0  0  0  0  0  0  0  0
   -9.4744  -26.9014   13.7668 N   0  0  0  0  0  0  0  0  0  0  0  0
   -9.3662  -28.1038   14.3949 N   0  0  0  0  0  0  0  0  0  0  0  0
  -10.0993  -27.9817   15.5032 C   0  0  0  0  0  0  0  0  0  0  0  0
  -10.6664  -26.7024   15.6298 C   0  0  0  0  0  0  0  0  0  0  0  0
  -10.2276  -26.0042   14.5207 C   0  0  0  0  0  0  0  0  0  0  0  0
  -10.3910  -24.6685   13.9947 C   0  0  0  0  0  0  0  0  0  0  0  0
  -10.8300  -19.7165    8.8258 N   0  0  0  0  0  0  0  0  0  0  0  0
  -10.8187  -19.0532    7.6609 N   0  0  0  0  0  0  0  0  0  0  0  0
   -9.2033  -18.9963    2.4938 H   0  0  0  0  0  0  0  0  0  0  0  0
   -8.2006  -17.8072    3.3424 H   0  0  0  0  0  0  0  0  0  0  0  0
   -9.9490  -17.5451    3.1850 H   0  0  0  0  0  0  0  0  0  0  0  0
  -10.3720  -19.5730    4.5933 H   0  0  0  0  0  0  0  0  0  0  0  0
   -8.6372  -19.8314    4.7505 H   0  0  0  0  0  0  0  0  0  0  0  0
  -10.1395  -17.3361    5.7315 H   0  0  0  0  0  0  0  0  0  0  0  0
   -8.4068  -17.5982    5.8874 H   0  0  0  0  0  0  0  0  0  0  0  0
   -7.6400  -19.3470    7.9959 H   0  0  0  0  0  0  0  0  0  0  0  0
   -9.3208  -19.4544   11.5910 H   0  0  0  0  0  0  0  0  0  0  0  0
   -7.8426  -20.0516   10.9490 H   0  0  0  0  0  0  0  0  0  0  0  0
   -7.4503  -22.8494   12.5710 H   0  0  0  0  0  0  0  0  0  0  0  0
   -7.2110  -21.1559   12.8415 H   0  0  0  0  0  0  0  0  0  0  0  0
   -8.2348  -22.1193   13.9674 H   0  0  0  0  0  0  0  0  0  0  0  0
  -11.0100  -22.4336   12.7304 H   0  0  0  0  0  0  0  0  0  0  0  0
  -10.4793  -23.0073   11.1231 H   0  0  0  0  0  0  0  0  0  0  0  0
   -8.6840  -24.9819   11.0942 H   0  0  0  0  0  0  0  0  0  0  0  0
   -8.3842  -27.2915   12.0078 H   0  0  0  0  0  0  0  0  0  0  0  0
  -10.1936  -28.8333   16.1653 H   0  0  0  0  0  0  0  0  0  0  0  0
  -11.3106  -26.3381   16.4154 H   0  0  0  0  0  0  0  0  0  0  0  0
  -10.9823  -23.9616   14.5446 H   0  0  0  0  0  0  0  0  0  0  0  0
  -11.7154  -18.7621    7.2888 H   0  0  0  0  0  0  0  0  0  0  0  0
  1  2  1  0
  2  3  1  0
  3  4  1  0
  4  5  2  0
  5  6  1  0
  6  7  1  0
  7  8  1  0
  8  9  1  0
  8 10  1  0
 10 11  1  0
 11 12  1  0
 12 13  2  0
 13 14  1  0
 14 15  1  0
 15 16  2  0
 16 17  1  0
 17 18  2  0
 18 19  1  0
  6 20  2  0
 20 21  1  0
 21  4  1  0
 19 11  2  0
 18 14  1  0
  1 22  1  0
  1 23  1  0
  1 24  1  0
  2 25  1  0
  2 26  1  0
  3 27  1  0
  3 28  1  0
  5 29  1  0
  7 30  1  0
  7 31  1  0
  9 32  1  0
  9 33  1  0
  9 34  1  0
 10 35  1  0
 10 36  1  0
 12 37  1  0
 13 38  1  0
 16 39  1  0
 17 40  1  0
 19 41  1  0
 21 42  1  0
M  END
>  <Energy>  (330) 
182.57440080302675

>  <compound_id>  (330) 
46881

>  <target_id>  (330) 
1

>  <reference_id>  (330) 
68

>  <inspiration_ids>  (330) 
[99, 68]

>  <energy_score>  (330) 
93.85446047376166

>  <distance_score>  (330) 
14.901937010599

>  <path>  (330) 
/opt/xchem-fragalysis-2/maxwin/BulkDock/SCRATCH/511025/C46881-P68/C46881-P68.minimised.mol

>  <scratch_subdir>  (330) 
/opt/xchem-fragalysis-2/maxwin/BulkDock/SCRATCH/511025/C46881-P68

>  <fragmenstein_runtime>  (330) 
20.72333836555481

>  <fragmenstein_outcome>  (330) 
too moved

>  <fragmenstein_mode>  (330) 
expansion

>  <fragmenstein_error>  (330) 


$$$$
C57998-P99
     RDKit          3D

 40 42  0  0  0  0  0  0  0  0999 V2000
   -2.1592  -22.6453   24.4422 O   0  0  0  0  0  0  0  0  0  0  0  0
   -3.0075  -22.2336   23.6996 C   0  0  0  0  0  0  0  0  0  0  0  0
   -3.1325  -20.9520   23.0219 N   0  0  0  0  0  0  0  0  0  0  0  0
   -2.2038  -19.7905   22.9569 C   0  0  0  0  0  0  0  0  0  0  0  0
   -2.6770  -18.2876   22.6641 C   0  0  0  0  0  0  0  0  0  0  0  0
   -3.3787  -17.5373   23.7813 C   0  0  0  0  0  0  0  0  0  0  0  0
   -2.2341  -16.7450   24.3252 C   0  0  0  0  0  0  0  0  0  0  0  0
   -1.1223  -17.2363   23.4227 C   0  0  0  0  0  0  0  0  0  0  0  0
   -1.6039  -17.3003   22.0114 N   0  0  0  0  0  0  0  0  0  0  0  0
   -1.7525  -15.9666   21.4793 C   0  0  0  0  0  0  0  0  0  0  0  0
   -2.7025  -15.2302   21.4753 O   0  0  0  0  0  0  0  0  0  0  0  0
   -0.4791  -15.4955   20.7109 C   0  0  0  0  0  0  0  0  0  0  0  0
   -0.7359  -14.4397   19.7610 O   0  0  0  0  0  0  0  0  0  0  0  0
   -4.1250  -23.2900   23.3929 C   0  0  0  0  0  0  0  0  0  0  0  0
   -5.5476  -22.9634   23.2707 C   0  0  0  0  0  0  0  0  0  0  0  0
   -6.4658  -23.9514   23.2259 C   0  0  0  0  0  0  0  0  0  0  0  0
   -6.0896  -25.2920   23.3031 N   0  0  0  0  0  0  0  0  0  0  0  0
   -6.9067  -26.3691   23.2774 N   0  0  0  0  0  0  0  0  0  0  0  0
   -6.0956  -27.4137   23.4505 C   0  0  0  0  0  0  0  0  0  0  0  0
   -4.7430  -27.0383   23.5316 C   0  0  0  0  0  0  0  0  0  0  0  0
   -4.7556  -25.6633   23.4233 C   0  0  0  0  0  0  0  0  0  0  0  0
   -3.7730  -24.6111   23.4666 C   0  0  0  0  0  0  0  0  0  0  0  0
   -3.9344  -20.9810   22.4061 H   0  0  0  0  0  0  0  0  0  0  0  0
   -1.4771  -20.0635   22.1834 H   0  0  0  0  0  0  0  0  0  0  0  0
   -1.6635  -19.8345   23.9086 H   0  0  0  0  0  0  0  0  0  0  0  0
   -3.4284  -18.3952   21.8697 H   0  0  0  0  0  0  0  0  0  0  0  0
   -3.8316  -18.2059   24.5190 H   0  0  0  0  0  0  0  0  0  0  0  0
   -4.1582  -16.8715   23.3951 H   0  0  0  0  0  0  0  0  0  0  0  0
   -2.4105  -15.6687   24.2263 H   0  0  0  0  0  0  0  0  0  0  0  0
   -2.0260  -16.9613   25.3771 H   0  0  0  0  0  0  0  0  0  0  0  0
   -0.6033  -18.1452   23.7460 H   0  0  0  0  0  0  0  0  0  0  0  0
   -0.3242  -16.4803   23.4539 H   0  0  0  0  0  0  0  0  0  0  0  0
    0.2401  -15.1154   21.4424 H   0  0  0  0  0  0  0  0  0  0  0  0
   -0.0298  -16.3321   20.1704 H   0  0  0  0  0  0  0  0  0  0  0  0
   -1.3875  -13.8608   20.1987 H   0  0  0  0  0  0  0  0  0  0  0  0
   -5.8510  -21.9224   23.2763 H   0  0  0  0  0  0  0  0  0  0  0  0
   -7.5310  -23.7689   23.1692 H   0  0  0  0  0  0  0  0  0  0  0  0
   -6.5237  -28.4053   23.5016 H   0  0  0  0  0  0  0  0  0  0  0  0
   -3.8826  -27.6784   23.6680 H   0  0  0  0  0  0  0  0  0  0  0  0
   -2.7358  -24.8953   23.6345 H   0  0  0  0  0  0  0  0  0  0  0  0
  1  2  2  0
  2  3  1  0
  3  4  1  0
  4  5  1  0
  5  6  1  0
  6  7  1  0
  7  8  1  0
  8  9  1  0
  9 10  1  0
 10 11  2  0
 10 12  1  0
 12 13  1  0
  2 14  1  0
 14 15  1  0
 15 16  2  0
 16 17  1  0
 17 18  1  0
 18 19  2  0
 19 20  1  0
 20 21  2  0
 21 22  1  0
  9  5  1  0
 22 14  2  0
 21 17  1  0
  3 23  1  0
  4 24  1  0
  4 25  1  0
  5 26  1  0
  6 27  1  0
  6 28  1  0
  7 29  1  0
  7 30  1  0
  8 31  1  0
  8 32  1  0
 12 33  1  0
 12 34  1  0
 13 35  1  0
 15 36  1  0
 16 37  1  0
 19 38  1  0
 20 39  1  0
 22 40  1  0
M  END
>  <Energy>  (331) 
140.58107259956191

>  <compound_id>  (331) 
57998

>  <target_id>  (331) 
1

>  <reference_id>  (331) 
99

>  <inspiration_ids>  (331) 
[99, 68]

>  <energy_score>  (331) 
52.87362479222861

>  <distance_score>  (331) 
17.736253934923493

>  <path>  (331) 
/opt/xchem-fragalysis-2/maxwin/BulkDock/SCRATCH/511025/C57998-P99/C57998-P99.minimised.mol

>  <scratch_subdir>  (331) 
/opt/xchem-fragalysis-2/maxwin/BulkDock/SCRATCH/511025/C57998-P99

>  <fragmenstein_runtime>  (331) 
59.97091054916382

>  <fragmenstein_outcome>  (331) 
too moved

>  <fragmenstein_mode>  (331) 
expansion

>  <fragmenstein_error>  (331) 


$$$$
C57998-P68
     RDKit          3D

 40 42  0  0  0  0  0  0  0  0999 V2000
   -7.2636  -22.3323   23.5455 O   0  0  0  0  0  0  0  0  0  0  0  0
   -6.0768  -22.4791   23.4633 C   0  0  0  0  0  0  0  0  0  0  0  0
   -5.0083  -21.5083   23.4249 N   0  0  0  0  0  0  0  0  0  0  0  0
   -5.0291  -20.0364   23.5732 C   0  0  0  0  0  0  0  0  0  0  0  0
   -4.7971  -19.1448   22.2755 C   0  0  0  0  0  0  0  0  0  0  0  0
   -6.0391  -18.8013   21.4590 C   0  0  0  0  0  0  0  0  0  0  0  0
   -6.4218  -17.5255   22.1234 C   0  0  0  0  0  0  0  0  0  0  0  0
   -5.2079  -17.3233   22.9956 C   0  0  0  0  0  0  0  0  0  0  0  0
   -3.9427  -17.8490   22.3728 N   0  0  0  0  0  0  0  0  0  0  0  0
   -2.8207  -17.5312   23.1942 C   0  0  0  0  0  0  0  0  0  0  0  0
   -2.3036  -18.1526   24.0861 O   0  0  0  0  0  0  0  0  0  0  0  0
   -2.2445  -16.1227   22.7891 C   0  0  0  0  0  0  0  0  0  0  0  0
   -2.8114  -15.3600   21.7289 O   0  0  0  0  0  0  0  0  0  0  0  0
   -5.5740  -23.9451   23.4476 C   0  0  0  0  0  0  0  0  0  0  0  0
   -4.4259  -24.3891   22.6539 C   0  0  0  0  0  0  0  0  0  0  0  0
   -4.0196  -25.6712   22.7183 C   0  0  0  0  0  0  0  0  0  0  0  0
   -4.6957  -26.5885   23.5175 N   0  0  0  0  0  0  0  0  0  0  0  0
   -4.3426  -27.8650   23.7540 N   0  0  0  0  0  0  0  0  0  0  0  0
   -5.2979  -28.3374   24.5547 C   0  0  0  0  0  0  0  0  0  0  0  0
   -6.2831  -27.3818   24.8532 C   0  0  0  0  0  0  0  0  0  0  0  0
   -5.8531  -26.2411   24.2113 C   0  0  0  0  0  0  0  0  0  0  0  0
   -6.2873  -24.8738   24.1447 C   0  0  0  0  0  0  0  0  0  0  0  0
   -4.1190  -21.9945   23.4363 H   0  0  0  0  0  0  0  0  0  0  0  0
   -5.9953  -19.7887   24.0269 H   0  0  0  0  0  0  0  0  0  0  0  0
   -4.2490  -19.8221   24.3093 H   0  0  0  0  0  0  0  0  0  0  0  0
   -4.1682  -19.7847   21.6442 H   0  0  0  0  0  0  0  0  0  0  0  0
   -5.7899  -18.6344   20.4052 H   0  0  0  0  0  0  0  0  0  0  0  0
   -6.8188  -19.5627   21.5237 H   0  0  0  0  0  0  0  0  0  0  0  0
   -6.5776  -16.7175   21.4173 H   0  0  0  0  0  0  0  0  0  0  0  0
   -7.3287  -17.6175   22.7294 H   0  0  0  0  0  0  0  0  0  0  0  0
   -5.0638  -16.2391   23.1111 H   0  0  0  0  0  0  0  0  0  0  0  0
   -5.3320  -17.6546   24.0381 H   0  0  0  0  0  0  0  0  0  0  0  0
   -1.1856  -16.2721   22.5505 H   0  0  0  0  0  0  0  0  0  0  0  0
   -2.3008  -15.4998   23.6882 H   0  0  0  0  0  0  0  0  0  0  0  0
   -2.7248  -15.9001   20.9253 H   0  0  0  0  0  0  0  0  0  0  0  0
   -3.9008  -23.6776   22.0260 H   0  0  0  0  0  0  0  0  0  0  0  0
   -3.1572  -26.0549   22.1881 H   0  0  0  0  0  0  0  0  0  0  0  0
   -5.2108  -29.3629   24.8836 H   0  0  0  0  0  0  0  0  0  0  0  0
   -7.1498  -27.4888   25.4887 H   0  0  0  0  0  0  0  0  0  0  0  0
   -7.1683  -24.5858   24.7141 H   0  0  0  0  0  0  0  0  0  0  0  0
  1  2  2  0
  2  3  1  0
  3  4  1  0
  4  5  1  0
  5  6  1  0
  6  7  1  0
  7  8  1  0
  8  9  1  0
  9 10  1  0
 10 11  2  0
 10 12  1  0
 12 13  1  0
  2 14  1  0
 14 15  1  0
 15 16  2  0
 16 17  1  0
 17 18  1  0
 18 19  2  0
 19 20  1  0
 20 21  2  0
 21 22  1  0
  9  5  1  0
 22 14  2  0
 21 17  1  0
  3 23  1  0
  4 24  1  0
  4 25  1  0
  5 26  1  0
  6 27  1  0
  6 28  1  0
  7 29  1  0
  7 30  1  0
  8 31  1  0
  8 32  1  0
 12 33  1  0
 12 34  1  0
 13 35  1  0
 15 36  1  0
 16 37  1  0
 19 38  1  0
 20 39  1  0
 22 40  1  0
M  END
>  <Energy>  (332) 
129.77010071570618

>  <compound_id>  (332) 
57998

>  <target_id>  (332) 
1

>  <reference_id>  (332) 
68

>  <inspiration_ids>  (332) 
[99, 68]

>  <energy_score>  (332) 
42.062652908377004

>  <distance_score>  (332) 
18.00786134314002

>  <path>  (332) 
/opt/xchem-fragalysis-2/maxwin/BulkDock/SCRATCH/511025/C57998-P68/C57998-P68.minimised.mol

>  <scratch_subdir>  (332) 
/opt/xchem-fragalysis-2/maxwin/BulkDock/SCRATCH/511025/C57998-P68

>  <fragmenstein_runtime>  (332) 
57.33881068229675

>  <fragmenstein_outcome>  (332) 
too moved

>  <fragmenstein_mode>  (332) 
expansion

>  <fragmenstein_error>  (332) 


$$$$
C57999-P99
     RDKit          3D

 42 44  0  0  0  0  0  0  0  0999 V2000
  -10.0679  -20.9726   19.1826 O   0  0  0  0  0  0  0  0  0  0  0  0
   -8.8811  -21.1155   19.3244 C   0  0  0  0  0  0  0  0  0  0  0  0
   -7.6798  -19.8959   18.6580 N   0  0  0  0  0  0  0  0  0  0  0  0
   -7.9406  -18.1833   17.7806 C   0  0  0  0  0  0  0  0  0  0  0  0
   -7.4790  -16.6833   16.4065 C   0  0  0  0  0  0  0  0  0  0  0  0
   -6.3028  -15.8179   16.5249 C   0  0  0  0  0  0  0  0  0  0  0  0
   -6.9372  -14.5357   16.2632 C   0  0  0  0  0  0  0  0  0  0  0  0
   -7.9645  -15.1307   14.9265 C   0  0  0  0  0  0  0  0  0  0  0  0
   -7.4861  -16.3212   14.4272 N   0  0  0  0  0  0  0  0  0  0  0  0
   -6.1822  -16.5508   13.6377 C   0  0  0  0  0  0  0  0  0  0  0  0
   -5.2995  -15.8138   13.3782 O   0  0  0  0  0  0  0  0  0  0  0  0
   -5.8637  -17.8026   13.2200 C   0  0  0  0  0  0  0  0  0  0  0  0
   -4.1967  -17.2517   13.9878 O   0  0  0  0  0  0  0  0  0  0  0  0
   -8.5408  -22.7110   20.4100 C   0  0  0  0  0  0  0  0  0  0  0  0
   -7.5973  -22.9139   21.4177 C   0  0  0  0  0  0  0  0  0  0  0  0
   -7.4943  -24.2539   22.4057 C   0  0  0  0  0  0  0  0  0  0  0  0
   -8.1818  -25.6271   22.6032 C   0  0  0  0  0  0  0  0  0  0  0  0
   -7.5029  -26.9380   23.2222 N   0  0  0  0  0  0  0  0  0  0  0  0
   -7.6079  -28.4796   22.8228 C   0  0  0  0  0  0  0  0  0  0  0  0
   -8.5811  -29.1134   21.5686 C   0  0  0  0  0  0  0  0  0  0  0  0
   -9.6601  -27.5294   21.6293 C   0  0  0  0  0  0  0  0  0  0  0  0
   -9.3040  -25.7101   21.7341 C   0  0  0  0  0  0  0  0  0  0  0  0
   -9.3976  -24.1818   20.7370 C   0  0  0  0  0  0  0  0  0  0  0  0
   -6.7481  -20.1577   18.9570 H   0  0  0  0  0  0  0  0  0  0  0  0
   -7.7393  -17.6131   18.6955 H   0  0  0  0  0  0  0  0  0  0  0  0
   -9.0325  -18.2451   17.7541 H   0  0  0  0  0  0  0  0  0  0  0  0
   -8.3161  -16.2461   16.9000 H   0  0  0  0  0  0  0  0  0  0  0  0
   -5.6617  -16.1017   15.7216 H   0  0  0  0  0  0  0  0  0  0  0  0
   -5.3725  -15.8996   17.1268 H   0  0  0  0  0  0  0  0  0  0  0  0
   -6.2352  -13.7788   16.4750 H   0  0  0  0  0  0  0  0  0  0  0  0
   -7.4894  -13.9256   17.0097 H   0  0  0  0  0  0  0  0  0  0  0  0
   -8.9528  -14.7204   14.6198 H   0  0  0  0  0  0  0  0  0  0  0  0
   -7.5940  -14.4619   14.1660 H   0  0  0  0  0  0  0  0  0  0  0  0
   -5.6965  -18.6810   13.6650 H   0  0  0  0  0  0  0  0  0  0  0  0
   -5.9038  -17.9342   12.1464 H   0  0  0  0  0  0  0  0  0  0  0  0
   -4.1120  -16.3017   13.8110 H   0  0  0  0  0  0  0  0  0  0  0  0
   -6.8480  -22.1491   21.6250 H   0  0  0  0  0  0  0  0  0  0  0  0
   -6.5968  -24.1779   23.0442 H   0  0  0  0  0  0  0  0  0  0  0  0
   -6.9341  -29.0805   23.3746 H   0  0  0  0  0  0  0  0  0  0  0  0
   -9.1512  -30.0381   21.3724 H   0  0  0  0  0  0  0  0  0  0  0  0
  -10.1362  -27.7361   20.6778 H   0  0  0  0  0  0  0  0  0  0  0  0
  -10.2244  -24.3053   20.0094 H   0  0  0  0  0  0  0  0  0  0  0  0
  1  2  2  0
  2  3  1  0
  3  4  1  0
  4  5  1  0
  5  6  1  0
  6  7  1  0
  7  8  1  0
  8  9  1  0
  9 10  1  0
 10 11  2  0
 10 12  1  0
 12 13  1  0
  2 14  1  0
 14 15  2  0
 15 16  1  0
 16 17  2  0
 17 18  1  0
 18 19  2  0
 19 20  1  0
 20 21  2  0
 21 22  1  0
 22 23  2  0
  9  5  1  0
 23 14  1  0
 22 17  1  0
  3 24  1  0
  4 25  1  0
  4 26  1  0
  5 27  1  0
  6 28  1  0
  6 29  1  0
  7 30  1  0
  7 31  1  0
  8 32  1  0
  8 33  1  0
 12 34  1  0
 12 35  1  0
 13 36  1  0
 15 37  1  0
 16 38  1  0
 19 39  1  0
 20 40  1  0
 21 41  1  0
 23 42  1  0
M  END
>  <Energy>  (333) 
1127.5451482286355

>  <compound_id>  (333) 
57999

>  <target_id>  (333) 
1

>  <reference_id>  (333) 
99

>  <inspiration_ids>  (333) 
[99, 68]

>  <energy_score>  (333) 
1028.3063167459086

>  <distance_score>  (333) 
14.083990422747478

>  <path>  (333) 
/opt/xchem-fragalysis-2/maxwin/BulkDock/SCRATCH/511025/C57999-P99/C57999-P99.minimised.mol

>  <scratch_subdir>  (333) 
/opt/xchem-fragalysis-2/maxwin/BulkDock/SCRATCH/511025/C57999-P99

>  <fragmenstein_runtime>  (333) 
34.654651165008545

>  <fragmenstein_outcome>  (333) 
too moved

>  <fragmenstein_mode>  (333) 
expansion

>  <fragmenstein_error>  (333) 


$$$$
C57999-P68
     RDKit          3D

 42 44  0  0  0  0  0  0  0  0999 V2000
   -9.4576  -26.2364   12.6992 O   0  0  0  0  0  0  0  0  0  0  0  0
   -8.3902  -25.7503   12.9533 C   0  0  0  0  0  0  0  0  0  0  0  0
   -7.8120  -24.4689   12.5597 N   0  0  0  0  0  0  0  0  0  0  0  0
   -8.3966  -23.3307   11.8091 C   0  0  0  0  0  0  0  0  0  0  0  0
   -7.6064  -22.1448   11.0683 C   0  0  0  0  0  0  0  0  0  0  0  0
   -6.4306  -21.5235   11.8058 C   0  0  0  0  0  0  0  0  0  0  0  0
   -5.3131  -22.0539   10.9807 C   0  0  0  0  0  0  0  0  0  0  0  0
   -6.1048  -22.9988   10.0887 C   0  0  0  0  0  0  0  0  0  0  0  0
   -7.3147  -22.3201    9.5510 N   0  0  0  0  0  0  0  0  0  0  0  0
   -7.4576  -21.0614    8.8617 C   0  0  0  0  0  0  0  0  0  0  0  0
   -6.6458  -20.2006    8.6261 O   0  0  0  0  0  0  0  0  0  0  0  0
   -8.8688  -20.8419    8.2759 C   0  0  0  0  0  0  0  0  0  0  0  0
   -8.9720  -19.5398    7.6465 O   0  0  0  0  0  0  0  0  0  0  0  0
   -7.5782  -26.6678   13.8932 C   0  0  0  0  0  0  0  0  0  0  0  0
   -6.6565  -26.2287   14.8401 C   0  0  0  0  0  0  0  0  0  0  0  0
   -6.0077  -27.1516   15.7053 C   0  0  0  0  0  0  0  0  0  0  0  0
   -6.2372  -28.5268   15.6769 C   0  0  0  0  0  0  0  0  0  0  0  0
   -5.5352  -29.3549   16.4798 N   0  0  0  0  0  0  0  0  0  0  0  0
   -5.8203  -30.6765   16.4416 C   0  0  0  0  0  0  0  0  0  0  0  0
   -6.7680  -31.2290   15.6007 C   0  0  0  0  0  0  0  0  0  0  0  0
   -7.4651  -30.3702   14.7507 C   0  0  0  0  0  0  0  0  0  0  0  0
   -7.2088  -28.9870   14.7733 C   0  0  0  0  0  0  0  0  0  0  0  0
   -7.8688  -28.0600   13.9125 C   0  0  0  0  0  0  0  0  0  0  0  0
   -6.8561  -24.4230   12.8879 H   0  0  0  0  0  0  0  0  0  0  0  0
   -9.0955  -23.7729   11.0885 H   0  0  0  0  0  0  0  0  0  0  0  0
   -9.0257  -22.8431   12.5660 H   0  0  0  0  0  0  0  0  0  0  0  0
   -8.3766  -21.3560   11.0739 H   0  0  0  0  0  0  0  0  0  0  0  0
   -6.4563  -20.4301   11.7913 H   0  0  0  0  0  0  0  0  0  0  0  0
   -6.3903  -21.8772   12.8373 H   0  0  0  0  0  0  0  0  0  0  0  0
   -4.8244  -21.2659   10.4006 H   0  0  0  0  0  0  0  0  0  0  0  0
   -4.5513  -22.5772   11.5651 H   0  0  0  0  0  0  0  0  0  0  0  0
   -5.4832  -23.2100    9.2082 H   0  0  0  0  0  0  0  0  0  0  0  0
   -6.3197  -23.9871   10.5143 H   0  0  0  0  0  0  0  0  0  0  0  0
   -9.0642  -21.6018    7.5146 H   0  0  0  0  0  0  0  0  0  0  0  0
   -9.6211  -20.8970    9.0662 H   0  0  0  0  0  0  0  0  0  0  0  0
   -8.0428  -19.2315    7.5605 H   0  0  0  0  0  0  0  0  0  0  0  0
   -6.4331  -25.1725   14.9539 H   0  0  0  0  0  0  0  0  0  0  0  0
   -5.2846  -26.7763   16.4280 H   0  0  0  0  0  0  0  0  0  0  0  0
   -5.2424  -31.2874   17.1253 H   0  0  0  0  0  0  0  0  0  0  0  0
   -6.9544  -32.2953   15.5986 H   0  0  0  0  0  0  0  0  0  0  0  0
   -8.2062  -30.7803   14.0699 H   0  0  0  0  0  0  0  0  0  0  0  0
   -8.6217  -28.4403   13.2208 H   0  0  0  0  0  0  0  0  0  0  0  0
  1  2  2  0
  2  3  1  0
  3  4  1  0
  4  5  1  0
  5  6  1  0
  6  7  1  0
  7  8  1  0
  8  9  1  0
  9 10  1  0
 10 11  2  0
 10 12  1  0
 12 13  1  0
  2 14  1  0
 14 15  2  0
 15 16  1  0
 16 17  2  0
 17 18  1  0
 18 19  2  0
 19 20  1  0
 20 21  2  0
 21 22  1  0
 22 23  2  0
  9  5  1  0
 23 14  1  0
 22 17  1  0
  3 24  1  0
  4 25  1  0
  4 26  1  0
  5 27  1  0
  6 28  1  0
  6 29  1  0
  7 30  1  0
  7 31  1  0
  8 32  1  0
  8 33  1  0
 12 34  1  0
 12 35  1  0
 13 36  1  0
 15 37  1  0
 16 38  1  0
 19 39  1  0
 20 40  1  0
 21 41  1  0
 23 42  1  0
M  END
>  <Energy>  (334) 
153.43598757199055

>  <compound_id>  (334) 
57999

>  <target_id>  (334) 
1

>  <reference_id>  (334) 
68

>  <inspiration_ids>  (334) 
[99, 68]

>  <energy_score>  (334) 
54.19715608926845

>  <distance_score>  (334) 
16.020499322589266

>  <path>  (334) 
/opt/xchem-fragalysis-2/maxwin/BulkDock/SCRATCH/511025/C57999-P68/C57999-P68.minimised.mol

>  <scratch_subdir>  (334) 
/opt/xchem-fragalysis-2/maxwin/BulkDock/SCRATCH/511025/C57999-P68

>  <fragmenstein_runtime>  (334) 
36.66773843765259

>  <fragmenstein_outcome>  (334) 
too moved

>  <fragmenstein_mode>  (334) 
expansion

>  <fragmenstein_error>  (334) 


$$$$
C58000-P99
     RDKit          3D

 42 44  0  0  0  0  0  0  0  0999 V2000
  -12.4408  -24.5640   14.3293 O   0  0  0  0  0  0  0  0  0  0  0  0
  -12.3929  -24.4275   15.5196 C   0  0  0  0  0  0  0  0  0  0  0  0
  -12.2022  -23.2356   16.3286 N   0  0  0  0  0  0  0  0  0  0  0  0
  -11.9090  -21.8280   15.9396 C   0  0  0  0  0  0  0  0  0  0  0  0
  -13.1409  -20.9128   15.7731 C   0  0  0  0  0  0  0  0  0  0  0  0
  -13.9475  -20.8019   17.0031 C   0  0  0  0  0  0  0  0  0  0  0  0
  -14.8043  -19.6979   16.4772 C   0  0  0  0  0  0  0  0  0  0  0  0
  -14.1687  -18.4125   16.1193 N   0  0  0  0  0  0  0  0  0  0  0  0
  -14.4917  -17.4603   15.0853 C   0  0  0  0  0  0  0  0  0  0  0  0
  -15.3033  -17.5152   14.1954 O   0  0  0  0  0  0  0  0  0  0  0  0
  -13.6984  -16.1480   15.2769 C   0  0  0  0  0  0  0  0  0  0  0  0
  -13.2885  -15.4367   14.1101 O   0  0  0  0  0  0  0  0  0  0  0  0
  -13.0040  -19.3883   15.6265 C   0  0  0  0  0  0  0  0  0  0  0  0
  -12.5446  -25.7624   16.2961 C   0  0  0  0  0  0  0  0  0  0  0  0
  -12.9935  -25.8629   17.6067 C   0  0  0  0  0  0  0  0  0  0  0  0
  -13.1621  -27.1296   18.2189 C   0  0  0  0  0  0  0  0  0  0  0  0
  -12.8733  -28.3460   17.6104 C   0  0  0  0  0  0  0  0  0  0  0  0
  -13.0019  -29.5178   18.2825 N   0  0  0  0  0  0  0  0  0  0  0  0
  -12.7753  -30.6697   17.6133 C   0  0  0  0  0  0  0  0  0  0  0  0
  -12.4712  -30.7128   16.2667 C   0  0  0  0  0  0  0  0  0  0  0  0
  -12.3278  -29.4982   15.5872 C   0  0  0  0  0  0  0  0  0  0  0  0
  -12.4904  -28.2745   16.2656 C   0  0  0  0  0  0  0  0  0  0  0  0
  -12.3142  -26.9974   15.6378 C   0  0  0  0  0  0  0  0  0  0  0  0
  -12.1323  -23.5043   17.3014 H   0  0  0  0  0  0  0  0  0  0  0  0
  -11.2369  -21.4304   16.7076 H   0  0  0  0  0  0  0  0  0  0  0  0
  -11.3593  -21.8637   14.9929 H   0  0  0  0  0  0  0  0  0  0  0  0
  -13.7426  -21.3143   14.9449 H   0  0  0  0  0  0  0  0  0  0  0  0
  -14.5221  -21.7054   17.2263 H   0  0  0  0  0  0  0  0  0  0  0  0
  -13.3750  -20.5076   17.8904 H   0  0  0  0  0  0  0  0  0  0  0  0
  -15.5294  -19.4275   17.2567 H   0  0  0  0  0  0  0  0  0  0  0  0
  -15.4385  -20.0125   15.6308 H   0  0  0  0  0  0  0  0  0  0  0  0
  -14.3403  -15.4756   15.8574 H   0  0  0  0  0  0  0  0  0  0  0  0
  -12.8310  -16.3609   15.8918 H   0  0  0  0  0  0  0  0  0  0  0  0
  -14.0384  -15.4895   13.4873 H   0  0  0  0  0  0  0  0  0  0  0  0
  -12.7392  -19.1257   14.6067 H   0  0  0  0  0  0  0  0  0  0  0  0
  -12.1431  -19.0520   16.2258 H   0  0  0  0  0  0  0  0  0  0  0  0
  -13.2643  -24.9870   18.1875 H   0  0  0  0  0  0  0  0  0  0  0  0
  -13.5513  -27.1384   19.2283 H   0  0  0  0  0  0  0  0  0  0  0  0
  -12.8638  -31.5776   18.2017 H   0  0  0  0  0  0  0  0  0  0  0  0
  -12.3280  -31.6605   15.7610 H   0  0  0  0  0  0  0  0  0  0  0  0
  -12.0717  -29.5048   14.5304 H   0  0  0  0  0  0  0  0  0  0  0  0
  -12.0079  -26.9707   14.5911 H   0  0  0  0  0  0  0  0  0  0  0  0
  1  2  2  0
  2  3  1  0
  3  4  1  0
  4  5  1  0
  5  6  1  0
  6  7  1  0
  7  8  1  0
  8  9  1  0
  9 10  2  0
  9 11  1  0
 11 12  1  0
  8 13  1  0
  2 14  1  0
 14 15  2  0
 15 16  1  0
 16 17  2  0
 17 18  1  0
 18 19  2  0
 19 20  1  0
 20 21  2  0
 21 22  1  0
 22 23  2  0
 13  5  1  0
 23 14  1  0
 22 17  1  0
  3 24  1  0
  4 25  1  0
  4 26  1  0
  5 27  1  0
  6 28  1  0
  6 29  1  0
  7 30  1  0
  7 31  1  0
 11 32  1  0
 11 33  1  0
 12 34  1  0
 13 35  1  0
 13 36  1  0
 15 37  1  0
 16 38  1  0
 19 39  1  0
 20 40  1  0
 21 41  1  0
 23 42  1  0
M  END
>  <Energy>  (335) 
134.95787452254376

>  <compound_id>  (335) 
58000

>  <target_id>  (335) 
1

>  <reference_id>  (335) 
99

>  <inspiration_ids>  (335) 
[99, 68]

>  <energy_score>  (335) 
47.745409627237905

>  <distance_score>  (335) 
15.933497266295857

>  <path>  (335) 
/opt/xchem-fragalysis-2/maxwin/BulkDock/SCRATCH/511025/C58000-P99/C58000-P99.minimised.mol

>  <scratch_subdir>  (335) 
/opt/xchem-fragalysis-2/maxwin/BulkDock/SCRATCH/511025/C58000-P99

>  <fragmenstein_runtime>  (335) 
56.32334089279175

>  <fragmenstein_outcome>  (335) 
too moved

>  <fragmenstein_mode>  (335) 
expansion

>  <fragmenstein_error>  (335) 


$$$$
C58000-P68
     RDKit          3D

 42 44  0  0  0  0  0  0  0  0999 V2000
   -8.8759  -20.7610   19.4542 O   0  0  0  0  0  0  0  0  0  0  0  0
   -9.1765  -20.9283   18.3069 C   0  0  0  0  0  0  0  0  0  0  0  0
   -9.2360  -19.9936   17.1984 N   0  0  0  0  0  0  0  0  0  0  0  0
   -8.8426  -18.5322   17.1101 C   0  0  0  0  0  0  0  0  0  0  0  0
   -8.4866  -17.5508   15.4739 C   0  0  0  0  0  0  0  0  0  0  0  0
   -9.7477  -17.3708   13.9604 C   0  0  0  0  0  0  0  0  0  0  0  0
   -9.9874  -15.9290   13.6102 C   0  0  0  0  0  0  0  0  0  0  0  0
   -9.6393  -14.6850   14.2883 N   0  0  0  0  0  0  0  0  0  0  0  0
   -9.2807  -13.3483   13.7309 C   0  0  0  0  0  0  0  0  0  0  0  0
   -9.0968  -12.9980   12.5823 O   0  0  0  0  0  0  0  0  0  0  0  0
   -9.2346  -12.1059   14.6819 C   0  0  0  0  0  0  0  0  0  0  0  0
   -9.0054  -10.8689   13.9692 O   0  0  0  0  0  0  0  0  0  0  0  0
   -8.0451  -15.7125   14.7296 C   0  0  0  0  0  0  0  0  0  0  0  0
   -9.4381  -22.3818   17.9464 C   0  0  0  0  0  0  0  0  0  0  0  0
  -10.4442  -23.1383   18.5605 C   0  0  0  0  0  0  0  0  0  0  0  0
  -10.6076  -24.5124   18.2578 C   0  0  0  0  0  0  0  0  0  0  0  0
   -9.7708  -25.1821   17.3680 C   0  0  0  0  0  0  0  0  0  0  0  0
  -10.0035  -26.4638   17.0061 N   0  0  0  0  0  0  0  0  0  0  0  0
   -9.1414  -27.0450   16.1387 C   0  0  0  0  0  0  0  0  0  0  0  0
   -7.9976  -26.4447   15.6637 C   0  0  0  0  0  0  0  0  0  0  0  0
   -7.7747  -25.1203   16.0164 C   0  0  0  0  0  0  0  0  0  0  0  0
   -8.6816  -24.4513   16.8511 C   0  0  0  0  0  0  0  0  0  0  0  0
   -8.5272  -23.0714   17.1387 C   0  0  0  0  0  0  0  0  0  0  0  0
   -9.6131  -20.4684   16.3851 H   0  0  0  0  0  0  0  0  0  0  0  0
   -9.4389  -18.0947   17.9305 H   0  0  0  0  0  0  0  0  0  0  0  0
   -7.8872  -18.4809   17.6436 H   0  0  0  0  0  0  0  0  0  0  0  0
   -8.1155  -16.8671   16.3399 H   0  0  0  0  0  0  0  0  0  0  0  0
   -9.3959  -17.6995   12.9633 H   0  0  0  0  0  0  0  0  0  0  0  0
  -10.6114  -18.0508   14.0932 H   0  0  0  0  0  0  0  0  0  0  0  0
  -10.1196  -15.6046   12.5996 H   0  0  0  0  0  0  0  0  0  0  0  0
  -11.0885  -15.8811   13.7403 H   0  0  0  0  0  0  0  0  0  0  0  0
  -10.2842  -12.0066   14.9954 H   0  0  0  0  0  0  0  0  0  0  0  0
   -8.6828  -12.0661   15.6016 H   0  0  0  0  0  0  0  0  0  0  0  0
   -9.2241  -11.0942   13.0414 H   0  0  0  0  0  0  0  0  0  0  0  0
   -7.3134  -16.0675   14.0316 H   0  0  0  0  0  0  0  0  0  0  0  0
   -7.4500  -15.1673   15.4528 H   0  0  0  0  0  0  0  0  0  0  0  0
  -11.1140  -22.6684   19.2774 H   0  0  0  0  0  0  0  0  0  0  0  0
  -11.4192  -25.0661   18.7265 H   0  0  0  0  0  0  0  0  0  0  0  0
   -9.4020  -28.0475   15.8181 H   0  0  0  0  0  0  0  0  0  0  0  0
   -7.3234  -26.9742   15.0010 H   0  0  0  0  0  0  0  0  0  0  0  0
   -6.9039  -24.6062   15.6169 H   0  0  0  0  0  0  0  0  0  0  0  0
   -7.6771  -22.5293   16.7277 H   0  0  0  0  0  0  0  0  0  0  0  0
  1  2  2  0
  2  3  1  0
  3  4  1  0
  4  5  1  0
  5  6  1  0
  6  7  1  0
  7  8  1  0
  8  9  1  0
  9 10  2  0
  9 11  1  0
 11 12  1  0
  8 13  1  0
  2 14  1  0
 14 15  2  0
 15 16  1  0
 16 17  2  0
 17 18  1  0
 18 19  2  0
 19 20  1  0
 20 21  2  0
 21 22  1  0
 22 23  2  0
 13  5  1  0
 23 14  1  0
 22 17  1  0
  3 24  1  0
  4 25  1  0
  4 26  1  0
  5 27  1  0
  6 28  1  0
  6 29  1  0
  7 30  1  0
  7 31  1  0
 11 32  1  0
 11 33  1  0
 12 34  1  0
 13 35  1  0
 13 36  1  0
 15 37  1  0
 16 38  1  0
 19 39  1  0
 20 40  1  0
 21 41  1  0
 23 42  1  0
M  END
>  <Energy>  (336) 
448.17406104312795

>  <compound_id>  (336) 
58000

>  <target_id>  (336) 
1

>  <reference_id>  (336) 
68

>  <inspiration_ids>  (336) 
[99, 68]

>  <energy_score>  (336) 
360.96159614781936

>  <distance_score>  (336) 
13.927042434884237

>  <path>  (336) 
/opt/xchem-fragalysis-2/maxwin/BulkDock/SCRATCH/511025/C58000-P68/C58000-P68.minimised.mol

>  <scratch_subdir>  (336) 
/opt/xchem-fragalysis-2/maxwin/BulkDock/SCRATCH/511025/C58000-P68

>  <fragmenstein_runtime>  (336) 
41.93818759918213

>  <fragmenstein_outcome>  (336) 
too moved

>  <fragmenstein_mode>  (336) 
expansion

>  <fragmenstein_error>  (336) 


$$$$
C58002-P99
     RDKit          3D

 43 45  0  0  0  0  0  0  0  0999 V2000
  -17.3699  -18.5926   13.3691 C   0  0  0  0  0  0  0  0  0  0  0  0
  -16.7668  -18.7973   14.7615 C   0  0  0  0  0  0  0  0  0  0  0  0
  -17.3157  -17.7277   15.7054 C   0  0  0  0  0  0  0  0  0  0  0  0
  -17.0849  -20.1016   15.3347 O   0  0  0  0  0  0  0  0  0  0  0  0
  -15.9874  -20.7960   15.8126 C   0  0  0  0  0  0  0  0  0  0  0  0
  -14.9380  -20.7146   15.2369 O   0  0  0  0  0  0  0  0  0  0  0  0
  -16.3257  -21.4479   17.0370 N   0  0  0  0  0  0  0  0  0  0  0  0
  -16.1696  -20.4986   18.1878 C   0  0  0  0  0  0  0  0  0  0  0  0
  -14.7125  -20.1936   18.4214 C   0  0  0  0  0  0  0  0  0  0  0  0
  -14.1964  -21.5811   18.2949 C   0  0  0  0  0  0  0  0  0  0  0  0
  -15.4633  -22.3768   17.9863 C   0  0  0  0  0  0  0  0  0  0  0  0
  -15.1425  -23.8971   17.4817 C   0  0  0  0  0  0  0  0  0  0  0  0
  -15.7654  -24.3398   16.5520 O   0  0  0  0  0  0  0  0  0  0  0  0
  -14.1377  -24.5456   18.3721 N   0  0  0  0  0  0  0  0  0  0  0  0
  -13.6989  -25.8680   18.4443 C   0  0  0  0  0  0  0  0  0  0  0  0
  -14.4104  -26.9464   17.7560 C   0  0  0  0  0  0  0  0  0  0  0  0
  -14.0167  -28.2288   17.9011 C   0  0  0  0  0  0  0  0  0  0  0  0
  -12.8993  -28.5490   18.6653 N   0  0  0  0  0  0  0  0  0  0  0  0
  -12.3836  -29.7778   18.9015 N   0  0  0  0  0  0  0  0  0  0  0  0
  -11.2446  -29.5534   19.5548 C   0  0  0  0  0  0  0  0  0  0  0  0
  -11.0453  -28.1882   19.8319 C   0  0  0  0  0  0  0  0  0  0  0  0
  -12.1462  -27.5571   19.2942 C   0  0  0  0  0  0  0  0  0  0  0  0
  -12.6179  -26.2000   19.2059 C   0  0  0  0  0  0  0  0  0  0  0  0
  -17.0475  -19.3831   12.6863 H   0  0  0  0  0  0  0  0  0  0  0  0
  -17.1138  -17.6167   12.9509 H   0  0  0  0  0  0  0  0  0  0  0  0
  -18.4625  -18.6676   13.4168 H   0  0  0  0  0  0  0  0  0  0  0  0
  -15.6843  -18.6457   14.6882 H   0  0  0  0  0  0  0  0  0  0  0  0
  -16.8041  -17.7636   16.6707 H   0  0  0  0  0  0  0  0  0  0  0  0
  -17.1782  -16.7230   15.2929 H   0  0  0  0  0  0  0  0  0  0  0  0
  -18.3815  -17.8868   15.9018 H   0  0  0  0  0  0  0  0  0  0  0  0
  -16.6683  -19.5640   17.9083 H   0  0  0  0  0  0  0  0  0  0  0  0
  -16.7288  -20.8148   19.0836 H   0  0  0  0  0  0  0  0  0  0  0  0
  -14.2898  -19.5804   17.6306 H   0  0  0  0  0  0  0  0  0  0  0  0
  -14.5288  -19.7353   19.3956 H   0  0  0  0  0  0  0  0  0  0  0  0
  -13.5538  -21.6632   17.4329 H   0  0  0  0  0  0  0  0  0  0  0  0
  -13.6697  -21.9046   19.1950 H   0  0  0  0  0  0  0  0  0  0  0  0
  -16.0537  -22.6054   18.8928 H   0  0  0  0  0  0  0  0  0  0  0  0
  -13.7536  -23.8541   18.9973 H   0  0  0  0  0  0  0  0  0  0  0  0
  -15.2740  -26.7075   17.1432 H   0  0  0  0  0  0  0  0  0  0  0  0
  -14.5220  -29.0601   17.4271 H   0  0  0  0  0  0  0  0  0  0  0  0
  -10.6175  -30.3948   19.8196 H   0  0  0  0  0  0  0  0  0  0  0  0
  -10.2186  -27.7387   20.3645 H   0  0  0  0  0  0  0  0  0  0  0  0
  -12.0662  -25.4397   19.7482 H   0  0  0  0  0  0  0  0  0  0  0  0
  1  2  1  0
  2  3  1  0
  2  4  1  0
  4  5  1  0
  5  6  2  0
  5  7  1  0
  7  8  1  0
  8  9  1  0
  9 10  1  0
 10 11  1  0
 11 12  1  0
 12 13  2  0
 12 14  1  0
 14 15  1  0
 15 16  1  0
 16 17  2  0
 17 18  1  0
 18 19  1  0
 19 20  2  0
 20 21  1  0
 21 22  2  0
 22 23  1  0
 11  7  1  0
 23 15  2  0
 22 18  1  0
  1 24  1  0
  1 25  1  0
  1 26  1  0
  2 27  1  0
  3 28  1  0
  3 29  1  0
  3 30  1  0
  8 31  1  0
  8 32  1  0
  9 33  1  0
  9 34  1  0
 10 35  1  0
 10 36  1  0
 11 37  1  0
 14 38  1  0
 16 39  1  0
 17 40  1  0
 20 41  1  0
 21 42  1  0
 23 43  1  0
M  END
>  <Energy>  (337) 
82.800817606642113

>  <compound_id>  (337) 
58002

>  <target_id>  (337) 
1

>  <reference_id>  (337) 
99

>  <inspiration_ids>  (337) 
[99, 68]

>  <energy_score>  (337) 
1.0591321381803027

>  <distance_score>  (337) 
17.986662625299488

>  <path>  (337) 
/opt/xchem-fragalysis-2/maxwin/BulkDock/SCRATCH/511025/C58002-P99/C58002-P99.minimised.mol

>  <scratch_subdir>  (337) 
/opt/xchem-fragalysis-2/maxwin/BulkDock/SCRATCH/511025/C58002-P99

>  <fragmenstein_runtime>  (337) 
38.26518177986145

>  <fragmenstein_outcome>  (337) 
too moved

>  <fragmenstein_mode>  (337) 
expansion

>  <fragmenstein_error>  (337) 


$$$$
C58002-P68
     RDKit          3D

 43 45  0  0  0  0  0  0  0  0999 V2000
   -8.5974  -19.7099    7.2220 C   0  0  0  0  0  0  0  0  0  0  0  0
   -9.2384  -20.9520    7.8840 C   0  0  0  0  0  0  0  0  0  0  0  0
  -10.1613  -21.6816    6.9202 C   0  0  0  0  0  0  0  0  0  0  0  0
   -8.2003  -21.8678    8.3047 O   0  0  0  0  0  0  0  0  0  0  0  0
   -8.2404  -22.3703    9.5857 C   0  0  0  0  0  0  0  0  0  0  0  0
   -9.2281  -22.3518   10.2629 O   0  0  0  0  0  0  0  0  0  0  0  0
   -6.9329  -22.7718    9.8910 N   0  0  0  0  0  0  0  0  0  0  0  0
   -6.1311  -21.5906   10.3999 C   0  0  0  0  0  0  0  0  0  0  0  0
   -4.6726  -21.9059   10.5712 C   0  0  0  0  0  0  0  0  0  0  0  0
   -4.8276  -23.3502   10.9137 C   0  0  0  0  0  0  0  0  0  0  0  0
   -6.3415  -23.4350   11.1704 C   0  0  0  0  0  0  0  0  0  0  0  0
   -6.6882  -25.0191   11.5050 C   0  0  0  0  0  0  0  0  0  0  0  0
   -6.5563  -25.8421   10.6351 O   0  0  0  0  0  0  0  0  0  0  0  0
   -7.0399  -25.1797   12.9505 N   0  0  0  0  0  0  0  0  0  0  0  0
   -7.2262  -26.3355   13.7312 C   0  0  0  0  0  0  0  0  0  0  0  0
   -6.9687  -27.6865   13.2190 C   0  0  0  0  0  0  0  0  0  0  0  0
   -7.0392  -28.7653   14.0323 C   0  0  0  0  0  0  0  0  0  0  0  0
   -7.3848  -28.6282   15.3773 N   0  0  0  0  0  0  0  0  0  0  0  0
   -7.4832  -29.5997   16.3272 N   0  0  0  0  0  0  0  0  0  0  0  0
   -7.8538  -28.9601   17.4376 C   0  0  0  0  0  0  0  0  0  0  0  0
   -8.0020  -27.5786   17.2400 C   0  0  0  0  0  0  0  0  0  0  0  0
   -7.6823  -27.3742   15.9139 C   0  0  0  0  0  0  0  0  0  0  0  0
   -7.5874  -26.2267   15.0437 C   0  0  0  0  0  0  0  0  0  0  0  0
   -8.0912  -19.9926    6.2924 H   0  0  0  0  0  0  0  0  0  0  0  0
   -7.8299  -19.2820    7.8727 H   0  0  0  0  0  0  0  0  0  0  0  0
   -9.3517  -18.9511    6.9951 H   0  0  0  0  0  0  0  0  0  0  0  0
   -9.8131  -20.6009    8.7419 H   0  0  0  0  0  0  0  0  0  0  0  0
  -10.6153  -22.5497    7.4099 H   0  0  0  0  0  0  0  0  0  0  0  0
   -9.6049  -22.0620    6.0566 H   0  0  0  0  0  0  0  0  0  0  0  0
  -10.9606  -21.0257    6.5623 H   0  0  0  0  0  0  0  0  0  0  0  0
   -6.2130  -20.8159    9.6236 H   0  0  0  0  0  0  0  0  0  0  0  0
   -6.6021  -21.1066   11.2736 H   0  0  0  0  0  0  0  0  0  0  0  0
   -4.2199  -21.3106   11.3678 H   0  0  0  0  0  0  0  0  0  0  0  0
   -4.0962  -21.7721    9.6508 H   0  0  0  0  0  0  0  0  0  0  0  0
   -4.1899  -23.7086   11.7207 H   0  0  0  0  0  0  0  0  0  0  0  0
   -4.5653  -23.9673   10.0428 H   0  0  0  0  0  0  0  0  0  0  0  0
   -6.7062  -22.9000   12.0607 H   0  0  0  0  0  0  0  0  0  0  0  0
   -7.1458  -24.2665   13.3700 H   0  0  0  0  0  0  0  0  0  0  0  0
   -6.7034  -27.8067   12.1731 H   0  0  0  0  0  0  0  0  0  0  0  0
   -6.8414  -29.7738   13.6942 H   0  0  0  0  0  0  0  0  0  0  0  0
   -7.9953  -29.5216   18.3515 H   0  0  0  0  0  0  0  0  0  0  0  0
   -8.2893  -26.8340   17.9658 H   0  0  0  0  0  0  0  0  0  0  0  0
   -7.7907  -25.2522   15.4775 H   0  0  0  0  0  0  0  0  0  0  0  0
  1  2  1  0
  2  3  1  0
  2  4  1  0
  4  5  1  0
  5  6  2  0
  5  7  1  0
  7  8  1  0
  8  9  1  0
  9 10  1  0
 10 11  1  0
 11 12  1  0
 12 13  2  0
 12 14  1  0
 14 15  1  0
 15 16  1  0
 16 17  2  0
 17 18  1  0
 18 19  1  0
 19 20  2  0
 20 21  1  0
 21 22  2  0
 22 23  1  0
 11  7  1  0
 23 15  2  0
 22 18  1  0
  1 24  1  0
  1 25  1  0
  1 26  1  0
  2 27  1  0
  3 28  1  0
  3 29  1  0
  3 30  1  0
  8 31  1  0
  8 32  1  0
  9 33  1  0
  9 34  1  0
 10 35  1  0
 10 36  1  0
 11 37  1  0
 14 38  1  0
 16 39  1  0
 17 40  1  0
 20 41  1  0
 21 42  1  0
 23 43  1  0
M  END
>  <Energy>  (338) 
76.174244930226848

>  <compound_id>  (338) 
58002

>  <target_id>  (338) 
1

>  <reference_id>  (338) 
68

>  <inspiration_ids>  (338) 
[99, 68]

>  <energy_score>  (338) 
-5.567440538235132

>  <distance_score>  (338) 
16.549607874840934

>  <path>  (338) 
/opt/xchem-fragalysis-2/maxwin/BulkDock/SCRATCH/511025/C58002-P68/C58002-P68.minimised.mol

>  <scratch_subdir>  (338) 
/opt/xchem-fragalysis-2/maxwin/BulkDock/SCRATCH/511025/C58002-P68

>  <fragmenstein_runtime>  (338) 
27.22374725341797

>  <fragmenstein_outcome>  (338) 
too moved

>  <fragmenstein_mode>  (338) 
expansion

>  <fragmenstein_error>  (338) 


$$$$
C58004-P99
     RDKit          3D

 40 43  0  0  0  0  0  0  0  0999 V2000
  -14.8059  -26.0772   15.1534 C   0  0  0  0  0  0  0  0  0  0  0  0
  -13.5694  -26.1321   14.2811 C   0  0  0  0  0  0  0  0  0  0  0  0
  -13.6573  -25.9626   13.0945 O   0  0  0  0  0  0  0  0  0  0  0  0
  -12.4300  -26.3809   15.0992 N   0  0  0  0  0  0  0  0  0  0  0  0
  -10.9744  -26.4010   14.7646 C   0  0  0  0  0  0  0  0  0  0  0  0
  -10.1966  -26.9507   15.9256 C   0  0  0  0  0  0  0  0  0  0  0  0
  -10.8995  -28.2835   15.9434 C   0  0  0  0  0  0  0  0  0  0  0  0
  -11.0529  -29.0167   17.1914 N   0  0  0  0  0  0  0  0  0  0  0  0
  -11.8424  -30.1264   17.4843 C   0  0  0  0  0  0  0  0  0  0  0  0
  -11.3609  -30.6130   18.6868 C   0  0  0  0  0  0  0  0  0  0  0  0
  -11.7187  -31.8127   19.4834 C   0  0  0  0  0  0  0  0  0  0  0  0
  -11.2282  -31.9191   20.8002 C   0  0  0  0  0  0  0  0  0  0  0  0
  -11.2236  -33.1191   21.5252 C   0  0  0  0  0  0  0  0  0  0  0  0
  -11.6597  -34.2880   20.9504 C   0  0  0  0  0  0  0  0  0  0  0  0
  -11.4963  -35.4375   21.6315 N   0  0  0  0  0  0  0  0  0  0  0  0
  -11.8491  -36.5817   21.0155 C   0  0  0  0  0  0  0  0  0  0  0  0
  -12.3948  -36.6276   19.7464 C   0  0  0  0  0  0  0  0  0  0  0  0
  -12.5875  -35.4284   19.0614 C   0  0  0  0  0  0  0  0  0  0  0  0
  -12.2023  -34.2151   19.6464 C   0  0  0  0  0  0  0  0  0  0  0  0
  -12.2704  -32.9758   18.9399 C   0  0  0  0  0  0  0  0  0  0  0  0
  -10.2934  -29.8121   19.0468 N   0  0  0  0  0  0  0  0  0  0  0  0
  -10.1358  -28.8455   18.1558 N   0  0  0  0  0  0  0  0  0  0  0  0
  -12.1920  -27.8812   15.2302 C   0  0  0  0  0  0  0  0  0  0  0  0
  -15.4322  -26.9475   14.9400 H   0  0  0  0  0  0  0  0  0  0  0  0
  -15.3583  -25.1602   14.9296 H   0  0  0  0  0  0  0  0  0  0  0  0
  -14.5555  -26.0727   16.2184 H   0  0  0  0  0  0  0  0  0  0  0  0
  -10.6847  -25.3578   14.6026 H   0  0  0  0  0  0  0  0  0  0  0  0
  -10.7719  -26.8696   13.7849 H   0  0  0  0  0  0  0  0  0  0  0  0
   -9.1245  -27.0326   15.7286 H   0  0  0  0  0  0  0  0  0  0  0  0
  -10.3603  -26.3706   16.8403 H   0  0  0  0  0  0  0  0  0  0  0  0
  -10.3577  -28.9882   15.2953 H   0  0  0  0  0  0  0  0  0  0  0  0
  -12.6096  -30.4749   16.8111 H   0  0  0  0  0  0  0  0  0  0  0  0
  -10.6731  -31.0913   21.2249 H   0  0  0  0  0  0  0  0  0  0  0  0
  -10.7690  -33.1516   22.5113 H   0  0  0  0  0  0  0  0  0  0  0  0
  -11.6828  -37.4886   21.5892 H   0  0  0  0  0  0  0  0  0  0  0  0
  -12.6676  -37.5757   19.2967 H   0  0  0  0  0  0  0  0  0  0  0  0
  -13.0032  -35.4503   18.0575 H   0  0  0  0  0  0  0  0  0  0  0  0
  -12.6201  -32.9728   17.9108 H   0  0  0  0  0  0  0  0  0  0  0  0
  -12.2686  -28.3552   14.2356 H   0  0  0  0  0  0  0  0  0  0  0  0
  -13.0691  -28.2616   15.7716 H   0  0  0  0  0  0  0  0  0  0  0  0
  1  2  1  0
  2  3  2  0
  2  4  1  0
  4  5  1  0
  5  6  1  0
  6  7  1  0
  7  8  1  0
  8  9  1  0
  9 10  2  0
 10 11  1  0
 11 12  2  0
 12 13  1  0
 13 14  2  0
 14 15  1  0
 15 16  2  0
 16 17  1  0
 17 18  2  0
 18 19  1  0
 19 20  2  0
 10 21  1  0
 21 22  2  0
  7 23  1  0
 23  4  1  0
 22  8  1  0
 20 11  1  0
 19 14  1  0
  1 24  1  0
  1 25  1  0
  1 26  1  0
  5 27  1  0
  5 28  1  0
  6 29  1  0
  6 30  1  0
  7 31  1  0
  9 32  1  0
 12 33  1  0
 13 34  1  0
 16 35  1  0
 17 36  1  0
 18 37  1  0
 20 38  1  0
 23 39  1  0
 23 40  1  0
M  END
>  <Energy>  (339) 
99.127613975545543

>  <compound_id>  (339) 
58004

>  <target_id>  (339) 
1

>  <reference_id>  (339) 
99

>  <inspiration_ids>  (339) 
[99, 68]

>  <energy_score>  (339) 
46.12145858421468

>  <distance_score>  (339) 
18.886374248395455

>  <path>  (339) 
/opt/xchem-fragalysis-2/maxwin/BulkDock/SCRATCH/511025/C58004-P99/C58004-P99.minimised.mol

>  <scratch_subdir>  (339) 
/opt/xchem-fragalysis-2/maxwin/BulkDock/SCRATCH/511025/C58004-P99

>  <fragmenstein_runtime>  (339) 
46.645869970321655

>  <fragmenstein_outcome>  (339) 
too moved

>  <fragmenstein_mode>  (339) 
expansion

>  <fragmenstein_error>  (339) 


$$$$
C58004-P68
     RDKit          3D

 40 43  0  0  0  0  0  0  0  0999 V2000
   -6.6990  -25.3703   11.3681 C   0  0  0  0  0  0  0  0  0  0  0  0
   -8.1242  -24.8869   11.5408 C   0  0  0  0  0  0  0  0  0  0  0  0
   -8.9628  -25.1720   10.7269 O   0  0  0  0  0  0  0  0  0  0  0  0
   -8.2184  -24.1136   12.7422 N   0  0  0  0  0  0  0  0  0  0  0  0
   -9.3653  -23.3186   13.3147 C   0  0  0  0  0  0  0  0  0  0  0  0
  -10.6189  -24.1448   13.4690 C   0  0  0  0  0  0  0  0  0  0  0  0
   -9.9926  -25.4584   13.8195 C   0  0  0  0  0  0  0  0  0  0  0  0
  -10.4004  -26.2523   14.9611 N   0  0  0  0  0  0  0  0  0  0  0  0
  -10.3363  -27.6320   14.9902 C   0  0  0  0  0  0  0  0  0  0  0  0
   -9.9817  -27.9227   16.2931 C   0  0  0  0  0  0  0  0  0  0  0  0
   -9.1344  -29.0584   16.6465 C   0  0  0  0  0  0  0  0  0  0  0  0
   -9.0677  -30.1798   15.8085 C   0  0  0  0  0  0  0  0  0  0  0  0
   -7.9241  -30.9857   15.7952 C   0  0  0  0  0  0  0  0  0  0  0  0
   -6.8444  -30.7098   16.6151 C   0  0  0  0  0  0  0  0  0  0  0  0
   -5.7196  -31.4157   16.4520 N   0  0  0  0  0  0  0  0  0  0  0  0
   -4.6484  -31.0472   17.1785 C   0  0  0  0  0  0  0  0  0  0  0  0
   -4.6658  -30.0531   18.1389 C   0  0  0  0  0  0  0  0  0  0  0  0
   -5.8465  -29.3535   18.3348 C   0  0  0  0  0  0  0  0  0  0  0  0
   -6.9614  -29.6575   17.5514 C   0  0  0  0  0  0  0  0  0  0  0  0
   -8.1238  -28.8686   17.5974 C   0  0  0  0  0  0  0  0  0  0  0  0
  -10.1472  -26.7889   17.0463 N   0  0  0  0  0  0  0  0  0  0  0  0
  -10.4122  -25.7728   16.2196 N   0  0  0  0  0  0  0  0  0  0  0  0
   -8.5445  -25.0064   13.9140 C   0  0  0  0  0  0  0  0  0  0  0  0
   -6.0114  -24.8698   12.0556 H   0  0  0  0  0  0  0  0  0  0  0  0
   -6.6628  -26.4478   11.5500 H   0  0  0  0  0  0  0  0  0  0  0  0
   -6.3723  -25.1585   10.3461 H   0  0  0  0  0  0  0  0  0  0  0  0
   -9.5757  -22.5291   12.5836 H   0  0  0  0  0  0  0  0  0  0  0  0
   -9.0631  -22.7830   14.2287 H   0  0  0  0  0  0  0  0  0  0  0  0
  -11.3048  -23.7556   14.2056 H   0  0  0  0  0  0  0  0  0  0  0  0
  -11.1595  -24.2193   12.5183 H   0  0  0  0  0  0  0  0  0  0  0  0
  -10.1169  -26.1243   12.9541 H   0  0  0  0  0  0  0  0  0  0  0  0
  -10.2633  -28.1993   14.0736 H   0  0  0  0  0  0  0  0  0  0  0  0
   -9.8527  -30.3850   15.0843 H   0  0  0  0  0  0  0  0  0  0  0  0
   -7.8569  -31.8094   15.0888 H   0  0  0  0  0  0  0  0  0  0  0  0
   -3.7363  -31.5887   16.9469 H   0  0  0  0  0  0  0  0  0  0  0  0
   -3.7722  -29.8134   18.7050 H   0  0  0  0  0  0  0  0  0  0  0  0
   -5.8741  -28.5421   19.0567 H   0  0  0  0  0  0  0  0  0  0  0  0
   -8.1580  -27.9982   18.2518 H   0  0  0  0  0  0  0  0  0  0  0  0
   -8.2531  -24.5464   14.8737 H   0  0  0  0  0  0  0  0  0  0  0  0
   -7.8957  -25.8913   13.8374 H   0  0  0  0  0  0  0  0  0  0  0  0
  1  2  1  0
  2  3  2  0
  2  4  1  0
  4  5  1  0
  5  6  1  0
  6  7  1  0
  7  8  1  0
  8  9  1  0
  9 10  2  0
 10 11  1  0
 11 12  2  0
 12 13  1  0
 13 14  2  0
 14 15  1  0
 15 16  2  0
 16 17  1  0
 17 18  2  0
 18 19  1  0
 19 20  2  0
 10 21  1  0
 21 22  2  0
  7 23  1  0
 23  4  1  0
 22  8  1  0
 20 11  1  0
 19 14  1  0
  1 24  1  0
  1 25  1  0
  1 26  1  0
  5 27  1  0
  5 28  1  0
  6 29  1  0
  6 30  1  0
  7 31  1  0
  9 32  1  0
 12 33  1  0
 13 34  1  0
 16 35  1  0
 17 36  1  0
 18 37  1  0
 20 38  1  0
 23 39  1  0
 23 40  1  0
M  END
>  <Energy>  (340) 
104.61521676503574

>  <compound_id>  (340) 
58004

>  <target_id>  (340) 
1

>  <reference_id>  (340) 
68

>  <inspiration_ids>  (340) 
[99, 68]

>  <energy_score>  (340) 
51.60906137370455

>  <distance_score>  (340) 
17.733250378237372

>  <path>  (340) 
/opt/xchem-fragalysis-2/maxwin/BulkDock/SCRATCH/511025/C58004-P68/C58004-P68.minimised.mol

>  <scratch_subdir>  (340) 
/opt/xchem-fragalysis-2/maxwin/BulkDock/SCRATCH/511025/C58004-P68

>  <fragmenstein_runtime>  (340) 
40.13829159736633

>  <fragmenstein_outcome>  (340) 
too moved

>  <fragmenstein_mode>  (340) 
expansion

>  <fragmenstein_error>  (340) 


$$$$
C58009-P99
     RDKit          3D

 40 43  0  0  0  0  0  0  0  0999 V2000
   -9.0571  -24.0966   21.8224 O   0  0  0  0  0  0  0  0  0  0  0  0
   -9.5868  -23.8643   23.1529 S   0  0  0  0  0  0  0  0  0  0  0  0
  -11.0197  -23.9377   23.3646 O   0  0  0  0  0  0  0  0  0  0  0  0
   -8.8960  -25.1712   24.1866 C   0  0  0  0  0  0  0  0  0  0  0  0
   -7.6327  -25.6970   23.9247 C   0  0  0  0  0  0  0  0  0  0  0  0
   -7.1448  -26.7499   24.7141 C   0  0  0  0  0  0  0  0  0  0  0  0
   -7.8805  -27.2717   25.7726 C   0  0  0  0  0  0  0  0  0  0  0  0
   -7.3346  -28.1979   26.5747 N   0  0  0  0  0  0  0  0  0  0  0  0
   -8.0597  -28.6499   27.6210 C   0  0  0  0  0  0  0  0  0  0  0  0
   -9.3514  -28.2473   27.8804 C   0  0  0  0  0  0  0  0  0  0  0  0
   -9.9309  -27.3098   27.0400 C   0  0  0  0  0  0  0  0  0  0  0  0
   -9.1854  -26.7847   25.9821 C   0  0  0  0  0  0  0  0  0  0  0  0
   -9.6946  -25.7555   25.1781 C   0  0  0  0  0  0  0  0  0  0  0  0
   -8.9562  -22.3090   23.8077 N   0  0  0  0  0  0  0  0  0  0  0  0
   -9.3431  -22.0993   25.2491 C   0  0  0  0  0  0  0  0  0  0  0  0
  -10.4127  -21.0095   25.2903 C   0  0  0  0  0  0  0  0  0  0  0  0
  -10.8015  -20.7517   23.8455 C   0  0  0  0  0  0  0  0  0  0  0  0
   -9.4822  -20.9691   23.0963 C   0  0  0  0  0  0  0  0  0  0  0  0
   -8.6161  -19.5774   23.1154 C   0  0  0  0  0  0  0  0  0  0  0  0
   -7.4453  -19.5228   22.4600 N   0  0  0  0  0  0  0  0  0  0  0  0
   -6.8964  -18.2978   22.1659 C   0  0  0  0  0  0  0  0  0  0  0  0
   -7.4538  -17.0956   22.5159 C   0  0  0  0  0  0  0  0  0  0  0  0
   -8.6154  -17.2183   23.2284 C   0  0  0  0  0  0  0  0  0  0  0  0
   -9.2052  -18.4178   23.5323 N   0  0  0  0  0  0  0  0  0  0  0  0
   -7.0143  -25.2885   23.1296 H   0  0  0  0  0  0  0  0  0  0  0  0
   -6.1459  -27.1409   24.5291 H   0  0  0  0  0  0  0  0  0  0  0  0
   -7.5550  -29.3594   28.2710 H   0  0  0  0  0  0  0  0  0  0  0  0
   -9.8862  -28.6168   28.7455 H   0  0  0  0  0  0  0  0  0  0  0  0
  -10.9434  -26.9689   27.2428 H   0  0  0  0  0  0  0  0  0  0  0  0
  -10.7007  -25.3809   25.3575 H   0  0  0  0  0  0  0  0  0  0  0  0
   -8.4506  -21.7918   25.8048 H   0  0  0  0  0  0  0  0  0  0  0  0
   -9.7145  -23.0100   25.7213 H   0  0  0  0  0  0  0  0  0  0  0  0
  -11.2756  -21.3121   25.8923 H   0  0  0  0  0  0  0  0  0  0  0  0
  -10.0016  -20.1039   25.7510 H   0  0  0  0  0  0  0  0  0  0  0  0
  -11.5471  -21.4881   23.5281 H   0  0  0  0  0  0  0  0  0  0  0  0
  -11.2592  -19.7689   23.7028 H   0  0  0  0  0  0  0  0  0  0  0  0
   -9.6620  -21.1929   22.0394 H   0  0  0  0  0  0  0  0  0  0  0  0
   -5.9612  -18.3409   21.6120 H   0  0  0  0  0  0  0  0  0  0  0  0
   -7.0161  -16.1434   22.2738 H   0  0  0  0  0  0  0  0  0  0  0  0
   -9.1524  -16.3445   23.5870 H   0  0  0  0  0  0  0  0  0  0  0  0
  1  2  2  0
  2  3  2  0
  2  4  1  0
  4  5  2  0
  5  6  1  0
  6  7  2  0
  7  8  1  0
  8  9  2  0
  9 10  1  0
 10 11  2  0
 11 12  1  0
 12 13  2  0
  2 14  1  0
 14 15  1  0
 15 16  1  0
 16 17  1  0
 17 18  1  0
 18 19  1  0
 19 20  2  0
 20 21  1  0
 21 22  2  0
 22 23  1  0
 23 24  2  0
 13  4  1  0
 18 14  1  0
 24 19  1  0
 12  7  1  0
  5 25  1  0
  6 26  1  0
  9 27  1  0
 10 28  1  0
 11 29  1  0
 13 30  1  0
 15 31  1  0
 15 32  1  0
 16 33  1  0
 16 34  1  0
 17 35  1  0
 17 36  1  0
 18 37  1  0
 21 38  1  0
 22 39  1  0
 23 40  1  0
M  END
>  <Energy>  (341) 
32.118629641801682

>  <compound_id>  (341) 
58009

>  <target_id>  (341) 
1

>  <reference_id>  (341) 
99

>  <inspiration_ids>  (341) 
[99, 68]

>  <energy_score>  (341) 
-21.718838595389002

>  <distance_score>  (341) 
14.905178713772228

>  <path>  (341) 
/opt/xchem-fragalysis-2/maxwin/BulkDock/SCRATCH/511025/C58009-P99/C58009-P99.minimised.mol

>  <scratch_subdir>  (341) 
/opt/xchem-fragalysis-2/maxwin/BulkDock/SCRATCH/511025/C58009-P99

>  <fragmenstein_runtime>  (341) 
28.34428358078003

>  <fragmenstein_outcome>  (341) 
too moved

>  <fragmenstein_mode>  (341) 
expansion

>  <fragmenstein_error>  (341) 


$$$$
C58009-P68
     RDKit          3D

 40 43  0  0  0  0  0  0  0  0999 V2000
   -9.7966  -26.4737   14.7706 O   0  0  0  0  0  0  0  0  0  0  0  0
  -10.8050  -25.5826   15.3439 S   0  0  0  0  0  0  0  0  0  0  0  0
  -11.9660  -25.2499   14.5372 O   0  0  0  0  0  0  0  0  0  0  0  0
  -11.5537  -26.8341   16.4456 C   0  0  0  0  0  0  0  0  0  0  0  0
  -11.9099  -26.8168   17.7662 C   0  0  0  0  0  0  0  0  0  0  0  0
  -12.6684  -27.8718   18.3514 C   0  0  0  0  0  0  0  0  0  0  0  0
  -12.9441  -29.0758   17.7324 C   0  0  0  0  0  0  0  0  0  0  0  0
  -13.4110  -30.1258   18.4488 N   0  0  0  0  0  0  0  0  0  0  0  0
  -13.4854  -31.3205   17.8230 C   0  0  0  0  0  0  0  0  0  0  0  0
  -13.1877  -31.4994   16.4842 C   0  0  0  0  0  0  0  0  0  0  0  0
  -12.7693  -30.3910   15.7455 C   0  0  0  0  0  0  0  0  0  0  0  0
  -12.5856  -29.1518   16.3826 C   0  0  0  0  0  0  0  0  0  0  0  0
  -11.9516  -28.0290   15.7583 C   0  0  0  0  0  0  0  0  0  0  0  0
   -9.6786  -23.9289   15.4429 N   0  0  0  0  0  0  0  0  0  0  0  0
   -9.6544  -23.7598   13.8189 C   0  0  0  0  0  0  0  0  0  0  0  0
   -9.2497  -22.3573   13.4845 C   0  0  0  0  0  0  0  0  0  0  0  0
  -10.0589  -21.6019   14.5100 C   0  0  0  0  0  0  0  0  0  0  0  0
   -9.5936  -22.0746   15.9697 C   0  0  0  0  0  0  0  0  0  0  0  0
   -8.9586  -20.7966   17.4356 C   0  0  0  0  0  0  0  0  0  0  0  0
   -9.2489  -19.4507   17.6473 N   0  0  0  0  0  0  0  0  0  0  0  0
   -7.9624  -18.2005   17.6672 C   0  0  0  0  0  0  0  0  0  0  0  0
   -6.8823  -18.2809   18.4901 C   0  0  0  0  0  0  0  0  0  0  0  0
   -6.8846  -19.5653   18.7400 C   0  0  0  0  0  0  0  0  0  0  0  0
   -7.7322  -20.7364   18.0372 N   0  0  0  0  0  0  0  0  0  0  0  0
  -11.5871  -26.0796   18.4626 H   0  0  0  0  0  0  0  0  0  0  0  0
  -12.9624  -27.7656   19.3840 H   0  0  0  0  0  0  0  0  0  0  0  0
  -13.8182  -32.1499   18.4395 H   0  0  0  0  0  0  0  0  0  0  0  0
  -13.2830  -32.4755   16.0218 H   0  0  0  0  0  0  0  0  0  0  0  0
  -12.5168  -30.5145   14.6950 H   0  0  0  0  0  0  0  0  0  0  0  0
  -11.7127  -28.1147   14.6948 H   0  0  0  0  0  0  0  0  0  0  0  0
  -10.6644  -23.8818   13.4150 H   0  0  0  0  0  0  0  0  0  0  0  0
   -9.0645  -24.5305   13.3201 H   0  0  0  0  0  0  0  0  0  0  0  0
   -9.6118  -22.1004   12.4906 H   0  0  0  0  0  0  0  0  0  0  0  0
   -8.1735  -22.1824   13.5304 H   0  0  0  0  0  0  0  0  0  0  0  0
  -10.2979  -20.5511   14.4010 H   0  0  0  0  0  0  0  0  0  0  0  0
  -10.9880  -22.0208   14.1522 H   0  0  0  0  0  0  0  0  0  0  0  0
   -8.5600  -22.3208   15.6459 H   0  0  0  0  0  0  0  0  0  0  0  0
   -8.2528  -17.2613   17.2223 H   0  0  0  0  0  0  0  0  0  0  0  0
   -6.0738  -17.7028   18.8580 H   0  0  0  0  0  0  0  0  0  0  0  0
   -6.0109  -19.8874   19.3108 H   0  0  0  0  0  0  0  0  0  0  0  0
  1  2  2  0
  2  3  2  0
  2  4  1  0
  4  5  2  0
  5  6  1  0
  6  7  2  0
  7  8  1  0
  8  9  2  0
  9 10  1  0
 10 11  2  0
 11 12  1  0
 12 13  2  0
  2 14  1  0
 14 15  1  0
 15 16  1  0
 16 17  1  0
 17 18  1  0
 18 19  1  0
 19 20  2  0
 20 21  1  0
 21 22  2  0
 22 23  1  0
 23 24  2  0
 13  4  1  0
 18 14  1  0
 24 19  1  0
 12  7  1  0
  5 25  1  0
  6 26  1  0
  9 27  1  0
 10 28  1  0
 11 29  1  0
 13 30  1  0
 15 31  1  0
 15 32  1  0
 16 33  1  0
 16 34  1  0
 17 35  1  0
 17 36  1  0
 18 37  1  0
 21 38  1  0
 22 39  1  0
 23 40  1  0
M  END
>  <Energy>  (342) 
469.12944090829626

>  <compound_id>  (342) 
58009

>  <target_id>  (342) 
1

>  <reference_id>  (342) 
68

>  <inspiration_ids>  (342) 
[99, 68]

>  <energy_score>  (342) 
415.291972671101

>  <distance_score>  (342) 
14.601740748489304

>  <path>  (342) 
/opt/xchem-fragalysis-2/maxwin/BulkDock/SCRATCH/511025/C58009-P68/C58009-P68.minimised.mol

>  <scratch_subdir>  (342) 
/opt/xchem-fragalysis-2/maxwin/BulkDock/SCRATCH/511025/C58009-P68

>  <fragmenstein_runtime>  (342) 
16.467416524887085

>  <fragmenstein_outcome>  (342) 
too moved

>  <fragmenstein_mode>  (342) 
expansion

>  <fragmenstein_error>  (342) 


$$$$
C58010-P99
     RDKit          3D

 46 48  0  0  0  0  0  0  0  0999 V2000
   -7.8747  -20.6885   18.5796 C   0  0  0  0  0  0  0  0  0  0  0  0
   -6.9948  -19.4417   18.5728 C   0  0  0  0  0  0  0  0  0  0  0  0
   -7.2217  -17.6649   17.8283 C   0  0  0  0  0  0  0  0  0  0  0  0
   -7.4233  -16.2840   16.4327 N   0  0  0  0  0  0  0  0  0  0  0  0
   -8.0106  -15.5330   14.6775 C   0  0  0  0  0  0  0  0  0  0  0  0
   -7.5586  -14.3094   14.0525 C   0  0  0  0  0  0  0  0  0  0  0  0
   -8.1848  -13.0370   13.0360 C   0  0  0  0  0  0  0  0  0  0  0  0
   -9.5300  -12.8734   12.8999 N   0  0  0  0  0  0  0  0  0  0  0  0
   -9.9674  -11.2242   13.1536 C   0  0  0  0  0  0  0  0  0  0  0  0
  -10.2713  -10.7502   14.2312 O   0  0  0  0  0  0  0  0  0  0  0  0
   -9.9225   -9.8589   11.8424 C   0  0  0  0  0  0  0  0  0  0  0  0
   -8.6361   -9.1039   11.4230 C   0  0  0  0  0  0  0  0  0  0  0  0
   -7.9096   -8.4935    9.8596 C   0  0  0  0  0  0  0  0  0  0  0  0
   -8.7940   -8.1650    8.5116 C   0  0  0  0  0  0  0  0  0  0  0  0
   -9.2198   -6.6495    7.6057 N   0  0  0  0  0  0  0  0  0  0  0  0
   -9.9187   -6.5810    6.4678 C   0  0  0  0  0  0  0  0  0  0  0  0
  -10.1769   -7.9355    6.2483 C   0  0  0  0  0  0  0  0  0  0  0  0
   -9.7207   -9.1607    7.4391 C   0  0  0  0  0  0  0  0  0  0  0  0
   -9.9149   -9.0196    8.7075 C   0  0  0  0  0  0  0  0  0  0  0  0
  -10.5658   -9.7628   10.2476 C   0  0  0  0  0  0  0  0  0  0  0  0
   -9.5242  -14.3132   14.0430 C   0  0  0  0  0  0  0  0  0  0  0  0
   -5.5263  -17.7773   18.6487 C   0  0  0  0  0  0  0  0  0  0  0  0
   -5.6320  -17.9068   20.1478 N   0  0  0  0  0  0  0  0  0  0  0  0
   -4.5625  -17.8154   17.9349 O   0  0  0  0  0  0  0  0  0  0  0  0
   -7.2080  -21.5162   18.7655 H   0  0  0  0  0  0  0  0  0  0  0  0
   -8.5129  -20.7114   17.7140 H   0  0  0  0  0  0  0  0  0  0  0  0
   -8.5392  -20.7714   19.4387 H   0  0  0  0  0  0  0  0  0  0  0  0
   -7.1115  -19.3359   19.6525 H   0  0  0  0  0  0  0  0  0  0  0  0
   -5.9683  -19.7304   18.5816 H   0  0  0  0  0  0  0  0  0  0  0  0
   -7.4542  -18.2267   17.0262 H   0  0  0  0  0  0  0  0  0  0  0  0
   -8.3454  -16.2291   16.8611 H   0  0  0  0  0  0  0  0  0  0  0  0
   -7.8776  -16.4230   14.0399 H   0  0  0  0  0  0  0  0  0  0  0  0
   -6.6447  -14.0284   13.5424 H   0  0  0  0  0  0  0  0  0  0  0  0
   -7.4072  -14.2475   15.1683 H   0  0  0  0  0  0  0  0  0  0  0  0
   -7.7763  -12.9964   12.0214 H   0  0  0  0  0  0  0  0  0  0  0  0
   -7.8518  -12.0697   13.3831 H   0  0  0  0  0  0  0  0  0  0  0  0
   -9.3285   -8.5253   10.9301 H   0  0  0  0  0  0  0  0  0  0  0  0
   -6.9020   -8.0432    9.9077 H   0  0  0  0  0  0  0  0  0  0  0  0
  -10.0204   -5.6921    5.8763 H   0  0  0  0  0  0  0  0  0  0  0  0
  -10.3134   -8.2458    5.2256 H   0  0  0  0  0  0  0  0  0  0  0  0
   -9.5682  -10.2110    7.1279 H   0  0  0  0  0  0  0  0  0  0  0  0
  -11.4539  -10.3119   10.0272 H   0  0  0  0  0  0  0  0  0  0  0  0
   -9.8847  -13.6331   14.7739 H   0  0  0  0  0  0  0  0  0  0  0  0
  -10.2995  -14.9537   13.5984 H   0  0  0  0  0  0  0  0  0  0  0  0
   -6.6213  -17.9403   20.4149 H   0  0  0  0  0  0  0  0  0  0  0  0
   -6.5988  -17.7087   20.4369 H   0  0  0  0  0  0  0  0  0  0  0  0
  1  2  1  0
  2  3  1  0
  3  4  1  0
  4  5  1  0
  5  6  1  0
  6  7  1  0
  7  8  1  0
  8  9  1  0
  9 10  2  0
  9 11  1  0
 11 12  2  0
 12 13  1  0
 13 14  2  0
 14 15  1  0
 15 16  2  0
 16 17  1  0
 17 18  2  0
 18 19  1  0
 19 20  2  0
  8 21  1  0
  3 22  1  0
 22 23  1  0
 22 24  2  0
 21  5  1  0
 20 11  1  0
 19 14  1  0
  1 25  1  0
  1 26  1  0
  1 27  1  0
  2 28  1  0
  2 29  1  0
  3 30  1  0
  4 31  1  0
  5 32  1  0
  6 33  1  0
  6 34  1  0
  7 35  1  0
  7 36  1  0
 12 37  1  0
 13 38  1  0
 16 39  1  0
 17 40  1  0
 18 41  1  0
 20 42  1  0
 21 43  1  0
 21 44  1  0
 23 45  1  0
 23 46  1  0
M  END
>  <Energy>  (343) 
1520.1884809293726

>  <compound_id>  (343) 
58010

>  <target_id>  (343) 
1

>  <reference_id>  (343) 
99

>  <inspiration_ids>  (343) 
[99, 68]

>  <energy_score>  (343) 
1375.2312589265912

>  <distance_score>  (343) 
14.188540768892603

>  <path>  (343) 
/opt/xchem-fragalysis-2/maxwin/BulkDock/SCRATCH/511025/C58010-P99/C58010-P99.minimised.mol

>  <scratch_subdir>  (343) 
/opt/xchem-fragalysis-2/maxwin/BulkDock/SCRATCH/511025/C58010-P99

>  <fragmenstein_runtime>  (343) 
47.369539737701416

>  <fragmenstein_outcome>  (343) 
too moved

>  <fragmenstein_mode>  (343) 
expansion

>  <fragmenstein_error>  (343) 


$$$$
C58010-P68
     RDKit          3D

 46 48  0  0  0  0  0  0  0  0999 V2000
   -7.8856  -10.4338   17.8363 C   0  0  0  0  0  0  0  0  0  0  0  0
   -8.4271   -9.2011   17.0582 C   0  0  0  0  0  0  0  0  0  0  0  0
   -7.6279   -7.7893   17.1714 C   0  0  0  0  0  0  0  0  0  0  0  0
   -8.2648   -6.5577   16.4776 N   0  0  0  0  0  0  0  0  0  0  0  0
   -7.3871   -5.3186   16.4035 C   0  0  0  0  0  0  0  0  0  0  0  0
   -6.5852   -5.2551   15.1616 C   0  0  0  0  0  0  0  0  0  0  0  0
   -6.1907   -3.7976   15.2736 C   0  0  0  0  0  0  0  0  0  0  0  0
   -7.2959   -2.7933   15.2306 N   0  0  0  0  0  0  0  0  0  0  0  0
   -6.7514   -1.3980   15.4409 C   0  0  0  0  0  0  0  0  0  0  0  0
   -6.5986   -0.7653   16.4632 O   0  0  0  0  0  0  0  0  0  0  0  0
   -6.3759   -0.4216   14.0908 C   0  0  0  0  0  0  0  0  0  0  0  0
   -6.6254    0.9243   14.2128 C   0  0  0  0  0  0  0  0  0  0  0  0
   -6.9791    1.5456   12.9179 C   0  0  0  0  0  0  0  0  0  0  0  0
   -7.3392    0.9633   11.2510 C   0  0  0  0  0  0  0  0  0  0  0  0
   -8.2788    1.4358   10.2564 N   0  0  0  0  0  0  0  0  0  0  0  0
   -8.3827    1.0101    8.9866 C   0  0  0  0  0  0  0  0  0  0  0  0
   -7.5469    0.0664    8.5264 C   0  0  0  0  0  0  0  0  0  0  0  0
   -6.7943   -0.5180    9.5209 C   0  0  0  0  0  0  0  0  0  0  0  0
   -6.8994   -0.2105   11.0416 C   0  0  0  0  0  0  0  0  0  0  0  0
   -6.4558   -0.6857   12.5375 C   0  0  0  0  0  0  0  0  0  0  0  0
   -7.9481   -3.8240   16.2674 C   0  0  0  0  0  0  0  0  0  0  0  0
   -7.4849   -7.4518   18.6986 C   0  0  0  0  0  0  0  0  0  0  0  0
   -6.2353   -7.9539   19.2404 N   0  0  0  0  0  0  0  0  0  0  0  0
   -8.3789   -6.8458   19.2258 O   0  0  0  0  0  0  0  0  0  0  0  0
   -8.0056  -10.2878   18.9137 H   0  0  0  0  0  0  0  0  0  0  0  0
   -8.4417  -11.3302   17.5521 H   0  0  0  0  0  0  0  0  0  0  0  0
   -6.8236  -10.5762   17.6236 H   0  0  0  0  0  0  0  0  0  0  0  0
   -9.4603   -9.0257   17.3836 H   0  0  0  0  0  0  0  0  0  0  0  0
   -8.4695   -9.4566   15.9922 H   0  0  0  0  0  0  0  0  0  0  0  0
   -6.6477   -7.9317   16.7035 H   0  0  0  0  0  0  0  0  0  0  0  0
   -9.0588   -6.3132   17.0852 H   0  0  0  0  0  0  0  0  0  0  0  0
   -6.7357   -5.3149   17.2876 H   0  0  0  0  0  0  0  0  0  0  0  0
   -5.7246   -5.9300   15.1665 H   0  0  0  0  0  0  0  0  0  0  0  0
   -7.1769   -5.4216   14.2604 H   0  0  0  0  0  0  0  0  0  0  0  0
   -5.5977   -3.6594   14.3932 H   0  0  0  0  0  0  0  0  0  0  0  0
   -5.5385   -3.6004   16.1399 H   0  0  0  0  0  0  0  0  0  0  0  0
   -6.7537    1.4381   15.1548 H   0  0  0  0  0  0  0  0  0  0  0  0
   -7.5190    2.4825   13.1740 H   0  0  0  0  0  0  0  0  0  0  0  0
   -9.1176    1.5110    8.3696 H   0  0  0  0  0  0  0  0  0  0  0  0
   -7.5209   -0.2550    7.4963 H   0  0  0  0  0  0  0  0  0  0  0  0
   -6.1419   -1.3094    9.1712 H   0  0  0  0  0  0  0  0  0  0  0  0
   -5.3839   -0.6838   12.2341 H   0  0  0  0  0  0  0  0  0  0  0  0
   -8.9988   -3.8677   15.9551 H   0  0  0  0  0  0  0  0  0  0  0  0
   -7.9343   -3.3310   17.2487 H   0  0  0  0  0  0  0  0  0  0  0  0
   -5.7625   -8.5310   18.5209 H   0  0  0  0  0  0  0  0  0  0  0  0
   -5.6562   -8.3257   18.4657 H   0  0  0  0  0  0  0  0  0  0  0  0
  1  2  1  0
  2  3  1  0
  3  4  1  0
  4  5  1  0
  5  6  1  0
  6  7  1  0
  7  8  1  0
  8  9  1  0
  9 10  2  0
  9 11  1  0
 11 12  2  0
 12 13  1  0
 13 14  2  0
 14 15  1  0
 15 16  2  0
 16 17  1  0
 17 18  2  0
 18 19  1  0
 19 20  2  0
  8 21  1  0
  3 22  1  0
 22 23  1  0
 22 24  2  0
 21  5  1  0
 20 11  1  0
 19 14  1  0
  1 25  1  0
  1 26  1  0
  1 27  1  0
  2 28  1  0
  2 29  1  0
  3 30  1  0
  4 31  1  0
  5 32  1  0
  6 33  1  0
  6 34  1  0
  7 35  1  0
  7 36  1  0
 12 37  1  0
 13 38  1  0
 16 39  1  0
 17 40  1  0
 18 41  1  0
 20 42  1  0
 21 43  1  0
 21 44  1  0
 23 45  1  0
 23 46  1  0
M  END
>  <Energy>  (344) 
530.62016250534782

>  <compound_id>  (344) 
58010

>  <target_id>  (344) 
1

>  <reference_id>  (344) 
68

>  <inspiration_ids>  (344) 
[99, 68]

>  <energy_score>  (344) 
385.66294050256306

>  <distance_score>  (344) 
18.622917391767228

>  <path>  (344) 
/opt/xchem-fragalysis-2/maxwin/BulkDock/SCRATCH/511025/C58010-P68/C58010-P68.minimised.mol

>  <scratch_subdir>  (344) 
/opt/xchem-fragalysis-2/maxwin/BulkDock/SCRATCH/511025/C58010-P68

>  <fragmenstein_runtime>  (344) 
55.76376700401306

>  <fragmenstein_outcome>  (344) 
too moved

>  <fragmenstein_mode>  (344) 
expansion

>  <fragmenstein_error>  (344) 


$$$$
C58011-P99
     RDKit          3D

 48 50  0  0  0  0  0  0  0  0999 V2000
   -7.3000  -18.3069   19.8257 C   0  0  0  0  0  0  0  0  0  0  0  0
   -7.7484  -16.8961   20.2466 C   0  0  0  0  0  0  0  0  0  0  0  0
   -7.1374  -15.6734   19.4329 C   0  0  0  0  0  0  0  0  0  0  0  0
   -7.6002  -14.2422   19.9399 C   0  0  0  0  0  0  0  0  0  0  0  0
   -8.3009  -14.2154   20.9147 O   0  0  0  0  0  0  0  0  0  0  0  0
   -7.0545  -13.1475   19.1238 N   0  0  0  0  0  0  0  0  0  0  0  0
   -7.1180  -11.6713   19.3072 C   0  0  0  0  0  0  0  0  0  0  0  0
   -6.6542  -10.6898   18.1731 C   0  0  0  0  0  0  0  0  0  0  0  0
   -6.0637   -9.3565   18.6880 C   0  0  0  0  0  0  0  0  0  0  0  0
   -6.4699   -8.2745   17.6773 C   0  0  0  0  0  0  0  0  0  0  0  0
   -7.1106   -9.0076   16.5849 N   0  0  0  0  0  0  0  0  0  0  0  0
   -8.0500   -8.2364   15.7566 C   0  0  0  0  0  0  0  0  0  0  0  0
   -7.7008   -6.7791   15.5786 C   0  0  0  0  0  0  0  0  0  0  0  0
   -6.5676   -6.3945   14.8654 C   0  0  0  0  0  0  0  0  0  0  0  0
   -6.2721   -5.0429   14.7390 C   0  0  0  0  0  0  0  0  0  0  0  0
   -7.0485   -4.0505   15.3309 C   0  0  0  0  0  0  0  0  0  0  0  0
   -6.6976   -2.7606   15.2169 N   0  0  0  0  0  0  0  0  0  0  0  0
   -7.4624   -1.8157   15.8057 C   0  0  0  0  0  0  0  0  0  0  0  0
   -8.5849   -2.1022   16.5486 C   0  0  0  0  0  0  0  0  0  0  0  0
   -8.9409   -3.4367   16.6797 C   0  0  0  0  0  0  0  0  0  0  0  0
   -8.1862   -4.4361   16.0478 C   0  0  0  0  0  0  0  0  0  0  0  0
   -8.5166   -5.7925   16.1511 C   0  0  0  0  0  0  0  0  0  0  0  0
   -7.7651  -10.1497   17.2538 C   0  0  0  0  0  0  0  0  0  0  0  0
   -6.2148  -18.4071   19.9210 H   0  0  0  0  0  0  0  0  0  0  0  0
   -7.7779  -19.0618   20.4570 H   0  0  0  0  0  0  0  0  0  0  0  0
   -7.5754  -18.4980   18.7843 H   0  0  0  0  0  0  0  0  0  0  0  0
   -7.5010  -16.7561   21.3060 H   0  0  0  0  0  0  0  0  0  0  0  0
   -8.8412  -16.8386   20.1720 H   0  0  0  0  0  0  0  0  0  0  0  0
   -6.0449  -15.7102   19.5102 H   0  0  0  0  0  0  0  0  0  0  0  0
   -7.4150  -15.7736   18.3794 H   0  0  0  0  0  0  0  0  0  0  0  0
   -6.4329  -13.5346   18.4226 H   0  0  0  0  0  0  0  0  0  0  0  0
   -6.4905  -11.4950   20.1894 H   0  0  0  0  0  0  0  0  0  0  0  0
   -8.1438  -11.4400   19.6158 H   0  0  0  0  0  0  0  0  0  0  0  0
   -5.8466  -11.1657   17.6117 H   0  0  0  0  0  0  0  0  0  0  0  0
   -4.9739   -9.4329   18.7736 H   0  0  0  0  0  0  0  0  0  0  0  0
   -6.4605   -9.1064   19.6789 H   0  0  0  0  0  0  0  0  0  0  0  0
   -7.1588   -7.5807   18.1748 H   0  0  0  0  0  0  0  0  0  0  0  0
   -5.5915   -7.7170   17.3373 H   0  0  0  0  0  0  0  0  0  0  0  0
   -8.1141   -8.7141   14.7715 H   0  0  0  0  0  0  0  0  0  0  0  0
   -9.0625   -8.2954   16.1784 H   0  0  0  0  0  0  0  0  0  0  0  0
   -5.9197   -7.1428   14.4130 H   0  0  0  0  0  0  0  0  0  0  0  0
   -5.3980   -4.7653   14.1687 H   0  0  0  0  0  0  0  0  0  0  0  0
   -7.1263   -0.7931   15.6569 H   0  0  0  0  0  0  0  0  0  0  0  0
   -9.1639   -1.3136   17.0137 H   0  0  0  0  0  0  0  0  0  0  0  0
   -9.8013   -3.6927   17.2871 H   0  0  0  0  0  0  0  0  0  0  0  0
   -9.3947   -6.0879   16.7216 H   0  0  0  0  0  0  0  0  0  0  0  0
   -8.6180   -9.8116   17.8593 H   0  0  0  0  0  0  0  0  0  0  0  0
   -8.1468  -10.8904   16.5504 H   0  0  0  0  0  0  0  0  0  0  0  0
  1  2  1  0
  2  3  1  0
  3  4  1  0
  4  5  2  0
  4  6  1  0
  6  7  1  0
  7  8  1  0
  8  9  1  0
  9 10  1  0
 10 11  1  0
 11 12  1  0
 12 13  1  0
 13 14  2  0
 14 15  1  0
 15 16  2  0
 16 17  1  0
 17 18  2  0
 18 19  1  0
 19 20  2  0
 20 21  1  0
 21 22  2  0
 11 23  1  0
 23  8  1  0
 22 13  1  0
 21 16  1  0
  1 24  1  0
  1 25  1  0
  1 26  1  0
  2 27  1  0
  2 28  1  0
  3 29  1  0
  3 30  1  0
  6 31  1  0
  7 32  1  0
  7 33  1  0
  8 34  1  0
  9 35  1  0
  9 36  1  0
 10 37  1  0
 10 38  1  0
 12 39  1  0
 12 40  1  0
 14 41  1  0
 15 42  1  0
 18 43  1  0
 19 44  1  0
 20 45  1  0
 22 46  1  0
 23 47  1  0
 23 48  1  0
M  END
>  <Energy>  (345) 
45.969498517260838

>  <compound_id>  (345) 
58011

>  <target_id>  (345) 
1

>  <reference_id>  (345) 
99

>  <inspiration_ids>  (345) 
[99, 68]

>  <energy_score>  (345) 
-0.20468239262606858

>  <distance_score>  (345) 
15.143429606902117

>  <path>  (345) 
/opt/xchem-fragalysis-2/maxwin/BulkDock/SCRATCH/511025/C58011-P99/C58011-P99.minimised.mol

>  <scratch_subdir>  (345) 
/opt/xchem-fragalysis-2/maxwin/BulkDock/SCRATCH/511025/C58011-P99

>  <fragmenstein_runtime>  (345) 
47.2896294593811

>  <fragmenstein_outcome>  (345) 
too moved

>  <fragmenstein_mode>  (345) 
expansion

>  <fragmenstein_error>  (345) 


$$$$
C58011-P68
     RDKit          3D

 48 50  0  0  0  0  0  0  0  0999 V2000
   -7.7421  -16.9565   20.3125 C   0  0  0  0  0  0  0  0  0  0  0  0
   -7.0193  -15.6121   20.5504 C   0  0  0  0  0  0  0  0  0  0  0  0
   -7.5124  -14.3865   19.6779 C   0  0  0  0  0  0  0  0  0  0  0  0
   -6.7667  -12.9922   19.8257 C   0  0  0  0  0  0  0  0  0  0  0  0
   -5.8457  -12.9358   20.5943 O   0  0  0  0  0  0  0  0  0  0  0  0
   -7.3452  -11.9582   18.9395 N   0  0  0  0  0  0  0  0  0  0  0  0
   -6.9039  -10.5562   18.6524 C   0  0  0  0  0  0  0  0  0  0  0  0
   -7.8664   -9.5704   17.8903 C   0  0  0  0  0  0  0  0  0  0  0  0
   -8.0592   -9.8486   16.4110 C   0  0  0  0  0  0  0  0  0  0  0  0
   -8.7042   -8.5981   15.8385 C   0  0  0  0  0  0  0  0  0  0  0  0
   -8.2139   -7.5175   16.6806 N   0  0  0  0  0  0  0  0  0  0  0  0
   -7.7322   -6.3260   15.9729 C   0  0  0  0  0  0  0  0  0  0  0  0
   -6.3066   -6.3857   15.4767 C   0  0  0  0  0  0  0  0  0  0  0  0
   -5.8849   -7.2389   14.4533 C   0  0  0  0  0  0  0  0  0  0  0  0
   -4.5355   -7.3368   14.1232 C   0  0  0  0  0  0  0  0  0  0  0  0
   -3.5702   -6.6115   14.8043 C   0  0  0  0  0  0  0  0  0  0  0  0
   -2.2839   -6.7081   14.4286 N   0  0  0  0  0  0  0  0  0  0  0  0
   -1.3546   -6.0265   15.1345 C   0  0  0  0  0  0  0  0  0  0  0  0
   -1.6538   -5.2102   16.2062 C   0  0  0  0  0  0  0  0  0  0  0  0
   -2.9895   -5.0746   16.5629 C   0  0  0  0  0  0  0  0  0  0  0  0
   -3.9789   -5.7629   15.8436 C   0  0  0  0  0  0  0  0  0  0  0  0
   -5.3390   -5.6303   16.1492 C   0  0  0  0  0  0  0  0  0  0  0  0
   -7.3704   -8.1000   17.7509 C   0  0  0  0  0  0  0  0  0  0  0  0
   -7.6247  -17.2726   19.2716 H   0  0  0  0  0  0  0  0  0  0  0  0
   -8.8103  -16.8570   20.5269 H   0  0  0  0  0  0  0  0  0  0  0  0
   -7.3247  -17.7307   20.9628 H   0  0  0  0  0  0  0  0  0  0  0  0
   -7.1176  -15.3383   21.6076 H   0  0  0  0  0  0  0  0  0  0  0  0
   -5.9476  -15.7523   20.3647 H   0  0  0  0  0  0  0  0  0  0  0  0
   -7.4051  -14.6786   18.6295 H   0  0  0  0  0  0  0  0  0  0  0  0
   -8.5645  -14.2088   19.9216 H   0  0  0  0  0  0  0  0  0  0  0  0
   -8.0651  -12.3785   18.3650 H   0  0  0  0  0  0  0  0  0  0  0  0
   -5.9602  -10.6477   18.1025 H   0  0  0  0  0  0  0  0  0  0  0  0
   -6.6517  -10.1229   19.6271 H   0  0  0  0  0  0  0  0  0  0  0  0
   -8.8414   -9.5796   18.3957 H   0  0  0  0  0  0  0  0  0  0  0  0
   -8.6492  -10.7479   16.2196 H   0  0  0  0  0  0  0  0  0  0  0  0
   -7.0664   -9.9257   15.9647 H   0  0  0  0  0  0  0  0  0  0  0  0
   -8.4803   -8.5112   14.7761 H   0  0  0  0  0  0  0  0  0  0  0  0
   -9.7938   -8.6565   15.9404 H   0  0  0  0  0  0  0  0  0  0  0  0
   -7.8306   -5.4830   16.6697 H   0  0  0  0  0  0  0  0  0  0  0  0
   -8.4078   -6.0616   15.1531 H   0  0  0  0  0  0  0  0  0  0  0  0
   -6.5681   -7.9002   13.9361 H   0  0  0  0  0  0  0  0  0  0  0  0
   -4.2238   -8.0282   13.3407 H   0  0  0  0  0  0  0  0  0  0  0  0
   -0.3297   -6.1635   14.8005 H   0  0  0  0  0  0  0  0  0  0  0  0
   -0.8710   -4.6865   16.7428 H   0  0  0  0  0  0  0  0  0  0  0  0
   -3.2563   -4.4253   17.3929 H   0  0  0  0  0  0  0  0  0  0  0  0
   -5.6394   -4.9758   16.9660 H   0  0  0  0  0  0  0  0  0  0  0  0
   -6.3064   -8.1073   17.4900 H   0  0  0  0  0  0  0  0  0  0  0  0
   -7.4962   -7.5515   18.6895 H   0  0  0  0  0  0  0  0  0  0  0  0
  1  2  1  0
  2  3  1  0
  3  4  1  0
  4  5  2  0
  4  6  1  0
  6  7  1  0
  7  8  1  0
  8  9  1  0
  9 10  1  0
 10 11  1  0
 11 12  1  0
 12 13  1  0
 13 14  2  0
 14 15  1  0
 15 16  2  0
 16 17  1  0
 17 18  2  0
 18 19  1  0
 19 20  2  0
 20 21  1  0
 21 22  2  0
 11 23  1  0
 23  8  1  0
 22 13  1  0
 21 16  1  0
  1 24  1  0
  1 25  1  0
  1 26  1  0
  2 27  1  0
  2 28  1  0
  3 29  1  0
  3 30  1  0
  6 31  1  0
  7 32  1  0
  7 33  1  0
  8 34  1  0
  9 35  1  0
  9 36  1  0
 10 37  1  0
 10 38  1  0
 12 39  1  0
 12 40  1  0
 14 41  1  0
 15 42  1  0
 18 43  1  0
 19 44  1  0
 20 45  1  0
 22 46  1  0
 23 47  1  0
 23 48  1  0
M  END
>  <Energy>  (346) 
48.392910105674154

>  <compound_id>  (346) 
58011

>  <target_id>  (346) 
1

>  <reference_id>  (346) 
68

>  <inspiration_ids>  (346) 
[99, 68]

>  <energy_score>  (346) 
2.218729195787091

>  <distance_score>  (346) 
15.658534340608457

>  <path>  (346) 
/opt/xchem-fragalysis-2/maxwin/BulkDock/SCRATCH/511025/C58011-P68/C58011-P68.minimised.mol

>  <scratch_subdir>  (346) 
/opt/xchem-fragalysis-2/maxwin/BulkDock/SCRATCH/511025/C58011-P68

>  <fragmenstein_runtime>  (346) 
45.749738454818726

>  <fragmenstein_outcome>  (346) 
too moved

>  <fragmenstein_mode>  (346) 
expansion

>  <fragmenstein_error>  (346) 


$$$$
C58012-P99
     RDKit          3D

 49 51  0  0  0  0  0  0  0  0999 V2000
   -8.0465  -20.6056   18.9171 C   0  0  0  0  0  0  0  0  0  0  0  0
   -8.6062  -19.5891   17.9025 C   0  0  0  0  0  0  0  0  0  0  0  0
   -7.7897  -18.2273   17.7590 C   0  0  0  0  0  0  0  0  0  0  0  0
   -8.0321  -17.3618   16.4941 N   0  0  0  0  0  0  0  0  0  0  0  0
   -7.4003  -15.9501   16.0357 C   0  0  0  0  0  0  0  0  0  0  0  0
   -6.5407  -15.3657   16.5863 O   0  0  0  0  0  0  0  0  0  0  0  0
   -8.0957  -14.8489   14.5529 C   0  0  0  0  0  0  0  0  0  0  0  0
   -9.0933  -13.2046   14.3571 N   0  0  0  0  0  0  0  0  0  0  0  0
   -8.8747  -11.5097   13.7285 C   0  0  0  0  0  0  0  0  0  0  0  0
   -7.8084  -10.3547   13.8551 C   0  0  0  0  0  0  0  0  0  0  0  0
   -8.3615   -9.0424   13.4995 C   0  0  0  0  0  0  0  0  0  0  0  0
   -8.9820   -8.8277   14.7663 N   0  0  0  0  0  0  0  0  0  0  0  0
   -9.3632   -7.3943   15.0115 C   0  0  0  0  0  0  0  0  0  0  0  0
  -10.3885   -6.8065   14.7728 O   0  0  0  0  0  0  0  0  0  0  0  0
   -8.3131   -6.4179   15.5478 C   0  0  0  0  0  0  0  0  0  0  0  0
   -7.2738   -6.7587   16.3871 C   0  0  0  0  0  0  0  0  0  0  0  0
   -6.3542   -5.7842   16.8095 C   0  0  0  0  0  0  0  0  0  0  0  0
   -6.4598   -4.4482   16.4534 C   0  0  0  0  0  0  0  0  0  0  0  0
   -5.5609   -3.5574   16.9109 N   0  0  0  0  0  0  0  0  0  0  0  0
   -5.7329   -2.2587   16.5745 C   0  0  0  0  0  0  0  0  0  0  0  0
   -6.7737   -1.7969   15.7937 C   0  0  0  0  0  0  0  0  0  0  0  0
   -7.6905   -2.7251   15.3175 C   0  0  0  0  0  0  0  0  0  0  0  0
   -7.5334   -4.0813   15.6271 C   0  0  0  0  0  0  0  0  0  0  0  0
   -8.4221   -5.0624   15.1598 C   0  0  0  0  0  0  0  0  0  0  0  0
   -9.8773  -10.1024   14.1986 C   0  0  0  0  0  0  0  0  0  0  0  0
   -7.9861  -20.1532   19.9116 H   0  0  0  0  0  0  0  0  0  0  0  0
   -8.7025  -21.4795   18.9748 H   0  0  0  0  0  0  0  0  0  0  0  0
   -7.0473  -20.9434   18.6306 H   0  0  0  0  0  0  0  0  0  0  0  0
   -9.6300  -19.3268   18.1982 H   0  0  0  0  0  0  0  0  0  0  0  0
   -8.7049  -20.1041   16.9491 H   0  0  0  0  0  0  0  0  0  0  0  0
   -6.7507  -18.3267   18.0710 H   0  0  0  0  0  0  0  0  0  0  0  0
   -8.2028  -17.5828   18.5481 H   0  0  0  0  0  0  0  0  0  0  0  0
   -8.6746  -17.6678   15.8034 H   0  0  0  0  0  0  0  0  0  0  0  0
   -7.3629  -14.5901   13.8474 H   0  0  0  0  0  0  0  0  0  0  0  0
   -7.5581  -14.2688   15.2577 H   0  0  0  0  0  0  0  0  0  0  0  0
   -8.8111  -12.7856   15.2342 H   0  0  0  0  0  0  0  0  0  0  0  0
   -9.1240  -11.7079   12.6858 H   0  0  0  0  0  0  0  0  0  0  0  0
   -6.7538  -10.3489   13.5434 H   0  0  0  0  0  0  0  0  0  0  0  0
   -7.5727  -10.1449   14.8666 H   0  0  0  0  0  0  0  0  0  0  0  0
   -8.8541   -9.1535   12.5323 H   0  0  0  0  0  0  0  0  0  0  0  0
   -7.4722   -8.4059   13.4367 H   0  0  0  0  0  0  0  0  0  0  0  0
   -7.1625   -7.7765   16.7458 H   0  0  0  0  0  0  0  0  0  0  0  0
   -5.5375   -6.0805   17.4657 H   0  0  0  0  0  0  0  0  0  0  0  0
   -4.9813   -1.5753   16.9595 H   0  0  0  0  0  0  0  0  0  0  0  0
   -6.8550   -0.7461   15.5374 H   0  0  0  0  0  0  0  0  0  0  0  0
   -8.5157   -2.3874   14.6946 H   0  0  0  0  0  0  0  0  0  0  0  0
   -9.2128   -4.7560   14.4791 H   0  0  0  0  0  0  0  0  0  0  0  0
  -10.6322  -10.2643   14.9514 H   0  0  0  0  0  0  0  0  0  0  0  0
  -10.4298   -9.7552   13.3231 H   0  0  0  0  0  0  0  0  0  0  0  0
  1  2  1  0
  2  3  1  0
  3  4  1  0
  4  5  1  0
  5  6  2  0
  5  7  1  0
  7  8  1  0
  8  9  1  0
  9 10  1  0
 10 11  1  0
 11 12  1  0
 12 13  1  0
 13 14  2  0
 13 15  1  0
 15 16  2  0
 16 17  1  0
 17 18  2  0
 18 19  1  0
 19 20  2  0
 20 21  1  0
 21 22  2  0
 22 23  1  0
 23 24  2  0
 12 25  1  0
 25  9  1  0
 24 15  1  0
 23 18  1  0
  1 26  1  0
  1 27  1  0
  1 28  1  0
  2 29  1  0
  2 30  1  0
  3 31  1  0
  3 32  1  0
  4 33  1  0
  7 34  1  0
  7 35  1  0
  8 36  1  0
  9 37  1  0
 10 38  1  0
 10 39  1  0
 11 40  1  0
 11 41  1  0
 16 42  1  0
 17 43  1  0
 20 44  1  0
 21 45  1  0
 22 46  1  0
 24 47  1  0
 25 48  1  0
 25 49  1  0
M  END
>  <Energy>  (347) 
521.29014749423902

>  <compound_id>  (347) 
58012

>  <target_id>  (347) 
1

>  <reference_id>  (347) 
99

>  <inspiration_ids>  (347) 
[99, 68]

>  <energy_score>  (347) 
407.6576665395204

>  <distance_score>  (347) 
14.944176285834692

>  <path>  (347) 
/opt/xchem-fragalysis-2/maxwin/BulkDock/SCRATCH/511025/C58012-P99/C58012-P99.minimised.mol

>  <scratch_subdir>  (347) 
/opt/xchem-fragalysis-2/maxwin/BulkDock/SCRATCH/511025/C58012-P99

>  <fragmenstein_runtime>  (347) 
53.83258295059204

>  <fragmenstein_outcome>  (347) 
too moved

>  <fragmenstein_mode>  (347) 
expansion

>  <fragmenstein_error>  (347) 


$$$$
C58012-P68
     RDKit          3D

 49 51  0  0  0  0  0  0  0  0999 V2000
   -9.2424  -19.9486   20.5555 C   0  0  0  0  0  0  0  0  0  0  0  0
   -8.7641  -18.9711   19.4767 C   0  0  0  0  0  0  0  0  0  0  0  0
   -9.1724  -17.4444   19.6418 C   0  0  0  0  0  0  0  0  0  0  0  0
   -8.5920  -16.5720   18.5865 N   0  0  0  0  0  0  0  0  0  0  0  0
   -8.1324  -16.8714   17.2873 C   0  0  0  0  0  0  0  0  0  0  0  0
   -8.1678  -17.8852   16.6825 O   0  0  0  0  0  0  0  0  0  0  0  0
   -7.2310  -15.5627   16.2894 C   0  0  0  0  0  0  0  0  0  0  0  0
   -7.9694  -14.8338   14.8380 N   0  0  0  0  0  0  0  0  0  0  0  0
   -8.9515  -13.3524   14.4093 C   0  0  0  0  0  0  0  0  0  0  0  0
   -8.9036  -12.7907   13.0154 C   0  0  0  0  0  0  0  0  0  0  0  0
   -9.0224  -11.1657   13.0129 C   0  0  0  0  0  0  0  0  0  0  0  0
   -7.9825  -10.5361   13.8502 N   0  0  0  0  0  0  0  0  0  0  0  0
   -7.7908   -8.7332   13.8843 C   0  0  0  0  0  0  0  0  0  0  0  0
   -8.4156   -8.0956   14.7101 O   0  0  0  0  0  0  0  0  0  0  0  0
   -6.5486   -7.5032   12.8705 C   0  0  0  0  0  0  0  0  0  0  0  0
   -5.5785   -7.7065   11.9303 C   0  0  0  0  0  0  0  0  0  0  0  0
   -5.5892   -6.8187   10.6022 C   0  0  0  0  0  0  0  0  0  0  0  0
   -6.5840   -5.6429    9.6536 C   0  0  0  0  0  0  0  0  0  0  0  0
   -6.7941   -4.9809    8.2107 N   0  0  0  0  0  0  0  0  0  0  0  0
   -7.6634   -4.1936    7.5907 C   0  0  0  0  0  0  0  0  0  0  0  0
   -8.6869   -3.9084    8.3407 C   0  0  0  0  0  0  0  0  0  0  0  0
   -8.4871   -4.4079    9.6415 C   0  0  0  0  0  0  0  0  0  0  0  0
   -7.2409   -4.9388   10.6765 C   0  0  0  0  0  0  0  0  0  0  0  0
   -6.7845   -5.7985   12.4264 C   0  0  0  0  0  0  0  0  0  0  0  0
   -8.8248  -11.6120   14.8659 C   0  0  0  0  0  0  0  0  0  0  0  0
  -10.3351  -19.9519   20.6110 H   0  0  0  0  0  0  0  0  0  0  0  0
   -8.8478  -19.6601   21.5344 H   0  0  0  0  0  0  0  0  0  0  0  0
   -8.9023  -20.9634   20.3288 H   0  0  0  0  0  0  0  0  0  0  0  0
   -7.6699  -19.0251   19.4191 H   0  0  0  0  0  0  0  0  0  0  0  0
   -9.1489  -19.3267   18.5138 H   0  0  0  0  0  0  0  0  0  0  0  0
   -8.8263  -17.0648   20.6075 H   0  0  0  0  0  0  0  0  0  0  0  0
  -10.2600  -17.3423   19.5871 H   0  0  0  0  0  0  0  0  0  0  0  0
   -8.4786  -15.5935   18.7513 H   0  0  0  0  0  0  0  0  0  0  0  0
   -6.8755  -14.7146   16.8555 H   0  0  0  0  0  0  0  0  0  0  0  0
   -6.3309  -15.9961   15.9190 H   0  0  0  0  0  0  0  0  0  0  0  0
   -8.3336  -15.6630   14.4033 H   0  0  0  0  0  0  0  0  0  0  0  0
   -9.9474  -13.7078   14.5778 H   0  0  0  0  0  0  0  0  0  0  0  0
   -7.9147  -12.9829   12.6049 H   0  0  0  0  0  0  0  0  0  0  0  0
   -9.6685  -13.2225   12.3650 H   0  0  0  0  0  0  0  0  0  0  0  0
   -9.9548  -10.6191   12.9847 H   0  0  0  0  0  0  0  0  0  0  0  0
   -8.6867  -11.3720   12.0821 H   0  0  0  0  0  0  0  0  0  0  0  0
   -4.7866   -8.4412   12.0421 H   0  0  0  0  0  0  0  0  0  0  0  0
   -4.5210   -6.7261   10.3993 H   0  0  0  0  0  0  0  0  0  0  0  0
   -7.5220   -3.9602    6.5503 H   0  0  0  0  0  0  0  0  0  0  0  0
   -9.5858   -3.4530    7.9657 H   0  0  0  0  0  0  0  0  0  0  0  0
   -9.4488   -4.5401   10.1754 H   0  0  0  0  0  0  0  0  0  0  0  0
   -7.4027   -5.3419   13.2647 H   0  0  0  0  0  0  0  0  0  0  0  0
   -9.8646  -11.2603   14.8735 H   0  0  0  0  0  0  0  0  0  0  0  0
   -8.3713  -11.7285   15.8307 H   0  0  0  0  0  0  0  0  0  0  0  0
  1  2  1  0
  2  3  1  0
  3  4  1  0
  4  5  1  0
  5  6  2  0
  5  7  1  0
  7  8  1  0
  8  9  1  0
  9 10  1  0
 10 11  1  0
 11 12  1  0
 12 13  1  0
 13 14  2  0
 13 15  1  0
 15 16  2  0
 16 17  1  0
 17 18  2  0
 18 19  1  0
 19 20  2  0
 20 21  1  0
 21 22  2  0
 22 23  1  0
 23 24  2  0
 12 25  1  0
 25  9  1  0
 24 15  1  0
 23 18  1  0
  1 26  1  0
  1 27  1  0
  1 28  1  0
  2 29  1  0
  2 30  1  0
  3 31  1  0
  3 32  1  0
  4 33  1  0
  7 34  1  0
  7 35  1  0
  8 36  1  0
  9 37  1  0
 10 38  1  0
 10 39  1  0
 11 40  1  0
 11 41  1  0
 16 42  1  0
 17 43  1  0
 20 44  1  0
 21 45  1  0
 22 46  1  0
 24 47  1  0
 25 48  1  0
 25 49  1  0
M  END
>  <Energy>  (348) 
878.40190439279615

>  <compound_id>  (348) 
58012

>  <target_id>  (348) 
1

>  <reference_id>  (348) 
68

>  <inspiration_ids>  (348) 
[99, 68]

>  <energy_score>  (348) 
764.7694234380737

>  <distance_score>  (348) 
14.714228686224143

>  <path>  (348) 
/opt/xchem-fragalysis-2/maxwin/BulkDock/SCRATCH/511025/C58012-P68/C58012-P68.minimised.mol

>  <scratch_subdir>  (348) 
/opt/xchem-fragalysis-2/maxwin/BulkDock/SCRATCH/511025/C58012-P68

>  <fragmenstein_runtime>  (348) 
36.54176068305969

>  <fragmenstein_outcome>  (348) 
too moved

>  <fragmenstein_mode>  (348) 
expansion

>  <fragmenstein_error>  (348) 


$$$$
C58016-P99
     RDKit          3D

 39 42  0  0  0  0  0  0  0  0999 V2000
   -3.5405  -16.2387   16.7274 O   0  0  0  0  0  0  0  0  0  0  0  0
   -2.5746  -16.2025   17.4824 C   0  0  0  0  0  0  0  0  0  0  0  0
   -1.7457  -15.0761   17.5285 O   0  0  0  0  0  0  0  0  0  0  0  0
   -2.2476  -13.7829   16.9082 C   0  0  0  0  0  0  0  0  0  0  0  0
   -1.7635  -12.5471   17.6919 C   0  0  0  0  0  0  0  0  0  0  0  0
   -2.1604  -11.3404   16.8148 C   0  0  0  0  0  0  0  0  0  0  0  0
   -1.9048  -11.7866   15.4441 N   0  0  0  0  0  0  0  0  0  0  0  0
   -2.4923  -11.0205   14.4233 C   0  0  0  0  0  0  0  0  0  0  0  0
   -2.4095  -11.3874   13.0790 C   0  0  0  0  0  0  0  0  0  0  0  0
   -3.0938  -10.6631   12.0851 C   0  0  0  0  0  0  0  0  0  0  0  0
   -3.8643   -9.5696   12.4410 C   0  0  0  0  0  0  0  0  0  0  0  0
   -3.8600   -9.2159   13.7718 C   0  0  0  0  0  0  0  0  0  0  0  0
   -3.1921   -9.8968   14.7425 N   0  0  0  0  0  0  0  0  0  0  0  0
   -1.8079  -13.2975   15.4531 C   0  0  0  0  0  0  0  0  0  0  0  0
   -2.3503  -17.3986   18.4777 C   0  0  0  0  0  0  0  0  0  0  0  0
   -1.0467  -17.8139   19.0138 C   0  0  0  0  0  0  0  0  0  0  0  0
   -0.9266  -18.9141   19.7987 C   0  0  0  0  0  0  0  0  0  0  0  0
   -2.0450  -19.6613   20.1828 N   0  0  0  0  0  0  0  0  0  0  0  0
   -2.0902  -20.7485   20.9991 N   0  0  0  0  0  0  0  0  0  0  0  0
   -3.3928  -20.9905   21.1720 C   0  0  0  0  0  0  0  0  0  0  0  0
   -4.1992  -20.0834   20.4645 C   0  0  0  0  0  0  0  0  0  0  0  0
   -3.3157  -19.2858   19.7661 C   0  0  0  0  0  0  0  0  0  0  0  0
   -3.4199  -18.1919   18.8224 C   0  0  0  0  0  0  0  0  0  0  0  0
   -3.3385  -13.7942   16.9797 H   0  0  0  0  0  0  0  0  0  0  0  0
   -2.2098  -12.4960   18.6900 H   0  0  0  0  0  0  0  0  0  0  0  0
   -0.6754  -12.5933   17.8252 H   0  0  0  0  0  0  0  0  0  0  0  0
   -3.2223  -11.1217   16.9830 H   0  0  0  0  0  0  0  0  0  0  0  0
   -1.5648  -10.4583   17.0717 H   0  0  0  0  0  0  0  0  0  0  0  0
   -1.8275  -12.2600   12.7948 H   0  0  0  0  0  0  0  0  0  0  0  0
   -3.0161  -10.9713   11.0471 H   0  0  0  0  0  0  0  0  0  0  0  0
   -4.4367   -9.0029   11.7174 H   0  0  0  0  0  0  0  0  0  0  0  0
   -4.4208   -8.3558   14.1243 H   0  0  0  0  0  0  0  0  0  0  0  0
   -0.7741  -13.5981   15.2525 H   0  0  0  0  0  0  0  0  0  0  0  0
   -2.4503  -13.7358   14.7014 H   0  0  0  0  0  0  0  0  0  0  0  0
   -0.1763  -17.2293   18.7318 H   0  0  0  0  0  0  0  0  0  0  0  0
    0.0213  -19.2588   20.1909 H   0  0  0  0  0  0  0  0  0  0  0  0
   -3.6936  -21.8028   21.8200 H   0  0  0  0  0  0  0  0  0  0  0  0
   -5.2756  -20.0164   20.4354 H   0  0  0  0  0  0  0  0  0  0  0  0
   -4.4052  -17.9934   18.4136 H   0  0  0  0  0  0  0  0  0  0  0  0
  1  2  2  0
  2  3  1  0
  3  4  1  0
  4  5  1  0
  5  6  1  0
  6  7  1  0
  7  8  1  0
  8  9  2  0
  9 10  1  0
 10 11  2  0
 11 12  1  0
 12 13  2  0
  7 14  1  0
  2 15  1  0
 15 16  1  0
 16 17  2  0
 17 18  1  0
 18 19  1  0
 19 20  2  0
 20 21  1  0
 21 22  2  0
 22 23  1  0
 14  4  1  0
 23 15  2  0
 13  8  1  0
 22 18  1  0
  4 24  1  0
  5 25  1  0
  5 26  1  0
  6 27  1  0
  6 28  1  0
  9 29  1  0
 10 30  1  0
 11 31  1  0
 12 32  1  0
 14 33  1  0
 14 34  1  0
 16 35  1  0
 17 36  1  0
 20 37  1  0
 21 38  1  0
 23 39  1  0
M  END
>  <Energy>  (349) 
56.647556674676977

>  <compound_id>  (349) 
58016

>  <target_id>  (349) 
1

>  <reference_id>  (349) 
99

>  <inspiration_ids>  (349) 
[99, 68]

>  <energy_score>  (349) 
-6.682948520337277

>  <distance_score>  (349) 
15.584165657578794

>  <path>  (349) 
/opt/xchem-fragalysis-2/maxwin/BulkDock/SCRATCH/511025/C58016-P99/C58016-P99.minimised.mol

>  <scratch_subdir>  (349) 
/opt/xchem-fragalysis-2/maxwin/BulkDock/SCRATCH/511025/C58016-P99

>  <fragmenstein_runtime>  (349) 
24.00283408164978

>  <fragmenstein_outcome>  (349) 
too moved

>  <fragmenstein_mode>  (349) 
expansion

>  <fragmenstein_error>  (349) 


$$$$
C58016-P68
     RDKit          3D

 39 42  0  0  0  0  0  0  0  0999 V2000
   -6.3889  -17.7741   12.9757 O   0  0  0  0  0  0  0  0  0  0  0  0
   -6.4294  -18.1054   11.7734 C   0  0  0  0  0  0  0  0  0  0  0  0
   -6.6063  -16.7090   10.6568 O   0  0  0  0  0  0  0  0  0  0  0  0
   -6.8783  -16.0826    8.7948 C   0  0  0  0  0  0  0  0  0  0  0  0
   -8.1661  -15.8061    7.9018 C   0  0  0  0  0  0  0  0  0  0  0  0
   -8.5215  -14.3068    7.9412 C   0  0  0  0  0  0  0  0  0  0  0  0
   -7.2594  -13.6226    8.1694 N   0  0  0  0  0  0  0  0  0  0  0  0
   -7.1929  -12.3705    8.7717 C   0  0  0  0  0  0  0  0  0  0  0  0
   -8.3357  -11.6068    9.0363 C   0  0  0  0  0  0  0  0  0  0  0  0
   -8.2416  -10.3878    9.7093 C   0  0  0  0  0  0  0  0  0  0  0  0
   -6.9976   -9.9089   10.0668 C   0  0  0  0  0  0  0  0  0  0  0  0
   -5.9090  -10.6856    9.7475 C   0  0  0  0  0  0  0  0  0  0  0  0
   -5.9807  -11.8804    9.1173 N   0  0  0  0  0  0  0  0  0  0  0  0
   -6.1676  -14.6087    8.4018 C   0  0  0  0  0  0  0  0  0  0  0  0
   -6.2390  -19.9122   11.6179 C   0  0  0  0  0  0  0  0  0  0  0  0
   -7.2429  -20.6112   12.4167 C   0  0  0  0  0  0  0  0  0  0  0  0
   -7.1975  -21.8628   12.9896 C   0  0  0  0  0  0  0  0  0  0  0  0
   -6.3340  -22.7961   12.3335 N   0  0  0  0  0  0  0  0  0  0  0  0
   -6.4542  -24.1643   12.2874 N   0  0  0  0  0  0  0  0  0  0  0  0
   -5.4150  -24.5480   11.5445 C   0  0  0  0  0  0  0  0  0  0  0  0
   -4.7027  -23.4548   10.9878 C   0  0  0  0  0  0  0  0  0  0  0  0
   -5.3480  -22.3103   11.4347 C   0  0  0  0  0  0  0  0  0  0  0  0
   -5.2598  -20.8403   11.2356 C   0  0  0  0  0  0  0  0  0  0  0  0
   -6.5290  -16.9722    8.1972 H   0  0  0  0  0  0  0  0  0  0  0  0
   -8.9981  -16.5048    7.9616 H   0  0  0  0  0  0  0  0  0  0  0  0
   -7.8260  -15.9718    6.8636 H   0  0  0  0  0  0  0  0  0  0  0  0
   -8.9580  -13.9943    6.9858 H   0  0  0  0  0  0  0  0  0  0  0  0
   -9.2649  -14.1201    8.7184 H   0  0  0  0  0  0  0  0  0  0  0  0
   -9.3217  -11.9479    8.7445 H   0  0  0  0  0  0  0  0  0  0  0  0
   -9.1402   -9.8317    9.9454 H   0  0  0  0  0  0  0  0  0  0  0  0
   -6.8702   -8.9749   10.5945 H   0  0  0  0  0  0  0  0  0  0  0  0
   -4.9075  -10.3845   10.0336 H   0  0  0  0  0  0  0  0  0  0  0  0
   -5.4418  -14.2421    9.1048 H   0  0  0  0  0  0  0  0  0  0  0  0
   -5.6497  -14.7539    7.4448 H   0  0  0  0  0  0  0  0  0  0  0  0
   -8.2070  -20.1512   12.1924 H   0  0  0  0  0  0  0  0  0  0  0  0
   -8.0281  -22.3309   13.5077 H   0  0  0  0  0  0  0  0  0  0  0  0
   -5.2254  -25.6042   11.4092 H   0  0  0  0  0  0  0  0  0  0  0  0
   -3.8493  -23.4923   10.3276 H   0  0  0  0  0  0  0  0  0  0  0  0
   -4.3343  -20.5575   10.7528 H   0  0  0  0  0  0  0  0  0  0  0  0
  1  2  2  0
  2  3  1  0
  3  4  1  0
  4  5  1  0
  5  6  1  0
  6  7  1  0
  7  8  1  0
  8  9  2  0
  9 10  1  0
 10 11  2  0
 11 12  1  0
 12 13  2  0
  7 14  1  0
  2 15  1  0
 15 16  1  0
 16 17  2  0
 17 18  1  0
 18 19  1  0
 19 20  2  0
 20 21  1  0
 21 22  2  0
 22 23  1  0
 14  4  1  0
 23 15  2  0
 13  8  1  0
 22 18  1  0
  4 24  1  0
  5 25  1  0
  5 26  1  0
  6 27  1  0
  6 28  1  0
  9 29  1  0
 10 30  1  0
 11 31  1  0
 12 32  1  0
 14 33  1  0
 14 34  1  0
 16 35  1  0
 17 36  1  0
 20 37  1  0
 21 38  1  0
 23 39  1  0
M  END
>  <Energy>  (350) 
334.73141419801112

>  <compound_id>  (350) 
58016

>  <target_id>  (350) 
1

>  <reference_id>  (350) 
68

>  <inspiration_ids>  (350) 
[99, 68]

>  <energy_score>  (350) 
271.400909002999

>  <distance_score>  (350) 
14.82332625760587

>  <path>  (350) 
/opt/xchem-fragalysis-2/maxwin/BulkDock/SCRATCH/511025/C58016-P68/C58016-P68.minimised.mol

>  <scratch_subdir>  (350) 
/opt/xchem-fragalysis-2/maxwin/BulkDock/SCRATCH/511025/C58016-P68

>  <fragmenstein_runtime>  (350) 
31.37411665916443

>  <fragmenstein_outcome>  (350) 
too moved

>  <fragmenstein_mode>  (350) 
expansion

>  <fragmenstein_error>  (350) 


$$$$
C58020-P99
     RDKit          3D

 46 48  0  0  0  0  0  0  0  0999 V2000
  -11.5939  -20.2882   16.4173 O   0  0  0  0  0  0  0  0  0  0  0  0
  -11.1548  -20.6258   15.3499 C   0  0  0  0  0  0  0  0  0  0  0  0
  -10.7450  -19.8161   14.1814 N   0  0  0  0  0  0  0  0  0  0  0  0
  -10.6526  -18.2456   13.9930 C   0  0  0  0  0  0  0  0  0  0  0  0
   -9.6635  -16.6061   13.4202 C   0  0  0  0  0  0  0  0  0  0  0  0
  -10.6906  -15.6457   12.9084 C   0  0  0  0  0  0  0  0  0  0  0  0
  -10.4208  -14.2119   12.6016 C   0  0  0  0  0  0  0  0  0  0  0  0
   -9.5202  -13.6706   13.5884 N   0  0  0  0  0  0  0  0  0  0  0  0
   -8.6569  -12.5755   12.9429 C   0  0  0  0  0  0  0  0  0  0  0  0
   -9.1220  -11.2357   13.5081 C   0  0  0  0  0  0  0  0  0  0  0  0
   -8.7015   -9.7752   13.5052 C   0  0  0  0  0  0  0  0  0  0  0  0
   -7.4461   -9.4097   14.0218 O   0  0  0  0  0  0  0  0  0  0  0  0
   -8.9935  -14.9145   14.2295 C   0  0  0  0  0  0  0  0  0  0  0  0
  -10.9542  -22.1782   15.3228 C   0  0  0  0  0  0  0  0  0  0  0  0
  -10.0754  -22.9172   14.5352 C   0  0  0  0  0  0  0  0  0  0  0  0
   -9.9149  -24.3291   14.7253 C   0  0  0  0  0  0  0  0  0  0  0  0
  -10.6179  -25.0752   15.6772 C   0  0  0  0  0  0  0  0  0  0  0  0
  -10.4932  -26.4225   15.7575 N   0  0  0  0  0  0  0  0  0  0  0  0
  -11.2755  -27.0722   16.6479 C   0  0  0  0  0  0  0  0  0  0  0  0
  -12.1290  -26.4463   17.5271 C   0  0  0  0  0  0  0  0  0  0  0  0
  -12.2272  -25.0613   17.4587 C   0  0  0  0  0  0  0  0  0  0  0  0
  -11.4906  -24.3494   16.5011 C   0  0  0  0  0  0  0  0  0  0  0  0
  -11.6328  -22.9401   16.3249 C   0  0  0  0  0  0  0  0  0  0  0  0
  -10.5002  -20.4343   13.4200 H   0  0  0  0  0  0  0  0  0  0  0  0
  -10.2667  -18.3596   15.0240 H   0  0  0  0  0  0  0  0  0  0  0  0
  -11.6579  -18.0560   14.1950 H   0  0  0  0  0  0  0  0  0  0  0  0
   -8.8810  -17.0347   12.8087 H   0  0  0  0  0  0  0  0  0  0  0  0
  -11.0102  -16.1063   12.0195 H   0  0  0  0  0  0  0  0  0  0  0  0
  -11.4671  -15.5727   13.6768 H   0  0  0  0  0  0  0  0  0  0  0  0
  -11.4239  -13.8540   12.6451 H   0  0  0  0  0  0  0  0  0  0  0  0
  -10.1956  -13.9370   11.5923 H   0  0  0  0  0  0  0  0  0  0  0  0
   -8.8188  -12.5715   11.8648 H   0  0  0  0  0  0  0  0  0  0  0  0
   -7.5872  -12.7372   12.9979 H   0  0  0  0  0  0  0  0  0  0  0  0
   -9.9718  -11.1243   12.8447 H   0  0  0  0  0  0  0  0  0  0  0  0
   -9.3657  -11.4472   14.5467 H   0  0  0  0  0  0  0  0  0  0  0  0
   -9.4456   -9.2293   14.0923 H   0  0  0  0  0  0  0  0  0  0  0  0
   -8.7780   -9.4074   12.4901 H   0  0  0  0  0  0  0  0  0  0  0  0
   -7.5040   -9.4110   14.9895 H   0  0  0  0  0  0  0  0  0  0  0  0
   -7.9795  -14.5048   14.0444 H   0  0  0  0  0  0  0  0  0  0  0  0
   -8.1582  -15.2879   14.8698 H   0  0  0  0  0  0  0  0  0  0  0  0
   -9.4726  -22.4328   13.7739 H   0  0  0  0  0  0  0  0  0  0  0  0
   -9.2190  -24.8613   14.0776 H   0  0  0  0  0  0  0  0  0  0  0  0
  -11.2326  -28.1493   16.6119 H   0  0  0  0  0  0  0  0  0  0  0  0
  -12.7159  -27.0147   18.2379 H   0  0  0  0  0  0  0  0  0  0  0  0
  -12.8985  -24.5443   18.1395 H   0  0  0  0  0  0  0  0  0  0  0  0
  -12.3153  -22.4145   16.9956 H   0  0  0  0  0  0  0  0  0  0  0  0
  1  2  2  0
  2  3  1  0
  3  4  1  0
  4  5  1  0
  5  6  1  0
  6  7  1  0
  7  8  1  0
  8  9  1  0
  9 10  1  0
 10 11  1  0
 11 12  1  0
  8 13  1  0
  2 14  1  0
 14 15  2  0
 15 16  1  0
 16 17  2  0
 17 18  1  0
 18 19  2  0
 19 20  1  0
 20 21  2  0
 21 22  1  0
 22 23  2  0
 13  5  1  0
 23 14  1  0
 22 17  1  0
  3 24  1  0
  4 25  1  0
  4 26  1  0
  5 27  1  0
  6 28  1  0
  6 29  1  0
  7 30  1  0
  7 31  1  0
  9 32  1  0
  9 33  1  0
 10 34  1  0
 10 35  1  0
 11 36  1  0
 11 37  1  0
 12 38  1  0
 13 39  1  0
 13 40  1  0
 15 41  1  0
 16 42  1  0
 19 43  1  0
 20 44  1  0
 21 45  1  0
 23 46  1  0
M  END
>  <Energy>  (351) 
357.23433743268481

>  <compound_id>  (351) 
58020

>  <target_id>  (351) 
1

>  <reference_id>  (351) 
99

>  <inspiration_ids>  (351) 
[99, 68]

>  <energy_score>  (351) 
290.0610929102694

>  <distance_score>  (351) 
13.7480789677039

>  <path>  (351) 
/opt/xchem-fragalysis-2/maxwin/BulkDock/SCRATCH/511025/C58020-P99/C58020-P99.minimised.mol

>  <scratch_subdir>  (351) 
/opt/xchem-fragalysis-2/maxwin/BulkDock/SCRATCH/511025/C58020-P99

>  <fragmenstein_runtime>  (351) 
51.38124370574951

>  <fragmenstein_outcome>  (351) 
too moved

>  <fragmenstein_mode>  (351) 
expansion

>  <fragmenstein_error>  (351) 


$$$$
C58020-P68
     RDKit          3D

 46 48  0  0  0  0  0  0  0  0999 V2000
   -7.9777  -17.1242   21.5362 O   0  0  0  0  0  0  0  0  0  0  0  0
   -9.1742  -17.2211   21.5758 C   0  0  0  0  0  0  0  0  0  0  0  0
  -10.2121  -16.1896   21.6845 N   0  0  0  0  0  0  0  0  0  0  0  0
  -10.1053  -14.6875   21.8839 C   0  0  0  0  0  0  0  0  0  0  0  0
  -10.0913  -13.6349   20.6959 C   0  0  0  0  0  0  0  0  0  0  0  0
   -8.7543  -12.9278   20.4858 C   0  0  0  0  0  0  0  0  0  0  0  0
   -9.1198  -11.7141   19.6320 C   0  0  0  0  0  0  0  0  0  0  0  0
  -10.4523  -11.2251   20.0504 N   0  0  0  0  0  0  0  0  0  0  0  0
  -11.3521  -10.7017   18.9508 C   0  0  0  0  0  0  0  0  0  0  0  0
  -11.2932   -9.1739   18.5253 C   0  0  0  0  0  0  0  0  0  0  0  0
  -11.9352   -8.8868   17.1383 C   0  0  0  0  0  0  0  0  0  0  0  0
  -11.3395   -7.7596   16.4901 O   0  0  0  0  0  0  0  0  0  0  0  0
  -10.9887  -12.3507   20.8710 C   0  0  0  0  0  0  0  0  0  0  0  0
   -9.6329  -18.7393   21.6236 C   0  0  0  0  0  0  0  0  0  0  0  0
  -10.6941  -19.2265   22.3957 C   0  0  0  0  0  0  0  0  0  0  0  0
  -10.9084  -20.6314   22.5902 C   0  0  0  0  0  0  0  0  0  0  0  0
  -10.0984  -21.6257   22.0416 C   0  0  0  0  0  0  0  0  0  0  0  0
  -10.3458  -22.9394   22.2733 N   0  0  0  0  0  0  0  0  0  0  0  0
   -9.5513  -23.8540   21.6698 C   0  0  0  0  0  0  0  0  0  0  0  0
   -8.4858  -23.5131   20.8598 C   0  0  0  0  0  0  0  0  0  0  0  0
   -8.2198  -22.1561   20.6602 C   0  0  0  0  0  0  0  0  0  0  0  0
   -9.0326  -21.1712   21.2480 C   0  0  0  0  0  0  0  0  0  0  0  0
   -8.8091  -19.7565   21.0669 C   0  0  0  0  0  0  0  0  0  0  0  0
  -11.1154  -16.6372   21.7737 H   0  0  0  0  0  0  0  0  0  0  0  0
  -10.9621  -14.4541   22.5264 H   0  0  0  0  0  0  0  0  0  0  0  0
   -9.2004  -14.5488   22.4862 H   0  0  0  0  0  0  0  0  0  0  0  0
  -10.3880  -14.1596   19.7952 H   0  0  0  0  0  0  0  0  0  0  0  0
   -8.3357  -12.5978   21.4448 H   0  0  0  0  0  0  0  0  0  0  0  0
   -8.0189  -13.5738   19.9965 H   0  0  0  0  0  0  0  0  0  0  0  0
   -8.3508  -10.9460   19.7601 H   0  0  0  0  0  0  0  0  0  0  0  0
   -9.1402  -12.0850   18.6068 H   0  0  0  0  0  0  0  0  0  0  0  0
  -12.3857  -10.8409   19.2963 H   0  0  0  0  0  0  0  0  0  0  0  0
  -11.2627  -11.3558   18.0808 H   0  0  0  0  0  0  0  0  0  0  0  0
  -11.8539   -8.6034   19.2789 H   0  0  0  0  0  0  0  0  0  0  0  0
  -10.2880   -8.7529   18.5926 H   0  0  0  0  0  0  0  0  0  0  0  0
  -11.8481   -9.7426   16.4648 H   0  0  0  0  0  0  0  0  0  0  0  0
  -13.0025   -8.6791   17.2711 H   0  0  0  0  0  0  0  0  0  0  0  0
  -11.8223   -7.6337   15.6558 H   0  0  0  0  0  0  0  0  0  0  0  0
  -10.9179  -12.0284   21.9187 H   0  0  0  0  0  0  0  0  0  0  0  0
  -12.0488  -12.5555   20.7044 H   0  0  0  0  0  0  0  0  0  0  0  0
  -11.3468  -18.5386   22.9273 H   0  0  0  0  0  0  0  0  0  0  0  0
  -11.7407  -20.9456   23.2190 H   0  0  0  0  0  0  0  0  0  0  0  0
   -9.8197  -24.8885   21.8512 H   0  0  0  0  0  0  0  0  0  0  0  0
   -7.8839  -24.2719   20.3767 H   0  0  0  0  0  0  0  0  0  0  0  0
   -7.3836  -21.8697   20.0265 H   0  0  0  0  0  0  0  0  0  0  0  0
   -7.9379  -19.4425   20.4887 H   0  0  0  0  0  0  0  0  0  0  0  0
  1  2  2  0
  2  3  1  0
  3  4  1  0
  4  5  1  0
  5  6  1  0
  6  7  1  0
  7  8  1  0
  8  9  1  0
  9 10  1  0
 10 11  1  0
 11 12  1  0
  8 13  1  0
  2 14  1  0
 14 15  2  0
 15 16  1  0
 16 17  2  0
 17 18  1  0
 18 19  2  0
 19 20  1  0
 20 21  2  0
 21 22  1  0
 22 23  2  0
 13  5  1  0
 23 14  1  0
 22 17  1  0
  3 24  1  0
  4 25  1  0
  4 26  1  0
  5 27  1  0
  6 28  1  0
  6 29  1  0
  7 30  1  0
  7 31  1  0
  9 32  1  0
  9 33  1  0
 10 34  1  0
 10 35  1  0
 11 36  1  0
 11 37  1  0
 12 38  1  0
 13 39  1  0
 13 40  1  0
 15 41  1  0
 16 42  1  0
 19 43  1  0
 20 44  1  0
 21 45  1  0
 23 46  1  0
M  END
>  <Energy>  (352) 
80.386193596580441

>  <compound_id>  (352) 
58020

>  <target_id>  (352) 
1

>  <reference_id>  (352) 
68

>  <inspiration_ids>  (352) 
[99, 68]

>  <energy_score>  (352) 
13.21294907416899

>  <distance_score>  (352) 
15.538220364247922

>  <path>  (352) 
/opt/xchem-fragalysis-2/maxwin/BulkDock/SCRATCH/511025/C58020-P68/C58020-P68.minimised.mol

>  <scratch_subdir>  (352) 
/opt/xchem-fragalysis-2/maxwin/BulkDock/SCRATCH/511025/C58020-P68

>  <fragmenstein_runtime>  (352) 
51.88188672065735

>  <fragmenstein_outcome>  (352) 
too moved

>  <fragmenstein_mode>  (352) 
expansion

>  <fragmenstein_error>  (352) 


$$$$
C58022-P99
     RDKit          3D

 40 42  0  0  0  0  0  0  0  0999 V2000
  -13.0607  -22.0128   15.2388 C   0  0  0  0  0  0  0  0  0  0  0  0
  -12.1549  -21.1248   15.9694 N   0  0  0  0  0  0  0  0  0  0  0  0
  -11.1140  -21.9513   16.7285 C   0  0  0  0  0  0  0  0  0  0  0  0
  -11.5729  -23.0921   17.7403 C   0  0  0  0  0  0  0  0  0  0  0  0
  -10.5200  -23.5724   18.7573 C   0  0  0  0  0  0  0  0  0  0  0  0
   -9.1665  -23.7200   18.4041 C   0  0  0  0  0  0  0  0  0  0  0  0
   -8.1723  -24.0559   19.3481 C   0  0  0  0  0  0  0  0  0  0  0  0
   -8.5543  -24.2955   20.6717 C   0  0  0  0  0  0  0  0  0  0  0  0
   -7.8115  -24.6393   21.7845 N   0  0  0  0  0  0  0  0  0  0  0  0
   -8.7381  -24.8418   22.6978 C   0  0  0  0  0  0  0  0  0  0  0  0
  -10.0200  -24.5830   22.3066 O   0  0  0  0  0  0  0  0  0  0  0  0
   -9.8989  -24.2425   20.9848 C   0  0  0  0  0  0  0  0  0  0  0  0
  -10.9083  -23.8877   20.0808 C   0  0  0  0  0  0  0  0  0  0  0  0
  -11.5214  -20.1186   15.0175 C   0  0  0  0  0  0  0  0  0  0  0  0
  -12.4013  -19.1373   14.1076 C   0  0  0  0  0  0  0  0  0  0  0  0
  -11.6460  -18.3097   13.0366 C   0  0  0  0  0  0  0  0  0  0  0  0
  -12.3957  -16.9867   12.8829 C   0  0  0  0  0  0  0  0  0  0  0  0
  -13.4729  -17.0070   13.8669 N   0  0  0  0  0  0  0  0  0  0  0  0
  -13.2028  -18.0660   14.8461 C   0  0  0  0  0  0  0  0  0  0  0  0
  -13.8698  -21.4468   14.7672 H   0  0  0  0  0  0  0  0  0  0  0  0
  -13.5543  -22.7152   15.9182 H   0  0  0  0  0  0  0  0  0  0  0  0
  -12.5370  -22.5869   14.4667 H   0  0  0  0  0  0  0  0  0  0  0  0
  -10.4359  -22.4050   15.9940 H   0  0  0  0  0  0  0  0  0  0  0  0
  -10.5211  -21.2284   17.3035 H   0  0  0  0  0  0  0  0  0  0  0  0
  -11.9201  -23.9629   17.1723 H   0  0  0  0  0  0  0  0  0  0  0  0
  -12.4305  -22.6991   18.3010 H   0  0  0  0  0  0  0  0  0  0  0  0
   -8.8509  -23.5426   17.3779 H   0  0  0  0  0  0  0  0  0  0  0  0
   -7.1319  -24.1385   19.0569 H   0  0  0  0  0  0  0  0  0  0  0  0
   -8.6048  -25.1719   23.7172 H   0  0  0  0  0  0  0  0  0  0  0  0
  -11.9441  -23.8538   20.3971 H   0  0  0  0  0  0  0  0  0  0  0  0
  -10.8709  -19.4834   15.6289 H   0  0  0  0  0  0  0  0  0  0  0  0
  -10.8720  -20.6802   14.3337 H   0  0  0  0  0  0  0  0  0  0  0  0
  -13.1109  -19.7634   13.5500 H   0  0  0  0  0  0  0  0  0  0  0  0
  -11.6139  -18.8589   12.0887 H   0  0  0  0  0  0  0  0  0  0  0  0
  -10.6191  -18.1013   13.3147 H   0  0  0  0  0  0  0  0  0  0  0  0
  -12.8291  -16.9064   11.8829 H   0  0  0  0  0  0  0  0  0  0  0  0
  -11.7262  -16.1364   13.0460 H   0  0  0  0  0  0  0  0  0  0  0  0
  -13.5723  -16.0991   14.3161 H   0  0  0  0  0  0  0  0  0  0  0  0
  -12.6818  -17.6790   15.7244 H   0  0  0  0  0  0  0  0  0  0  0  0
  -14.1493  -18.4802   15.2104 H   0  0  0  0  0  0  0  0  0  0  0  0
  1  2  1  0
  2  3  1  0
  3  4  1  0
  4  5  1  0
  5  6  2  0
  6  7  1  0
  7  8  2  0
  8  9  1  0
  9 10  2  0
 10 11  1  0
 11 12  1  0
 12 13  2  0
  2 14  1  0
 14 15  1  0
 15 16  1  0
 16 17  1  0
 17 18  1  0
 18 19  1  0
 13  5  1  0
 19 15  1  0
 12  8  1  0
  1 20  1  0
  1 21  1  0
  1 22  1  0
  3 23  1  0
  3 24  1  0
  4 25  1  0
  4 26  1  0
  6 27  1  0
  7 28  1  0
 10 29  1  0
 13 30  1  0
 14 31  1  0
 14 32  1  0
 15 33  1  0
 16 34  1  0
 16 35  1  0
 17 36  1  0
 17 37  1  0
 18 38  1  0
 19 39  1  0
 19 40  1  0
M  END
>  <Energy>  (353) 
58.506336696641654

>  <compound_id>  (353) 
58022

>  <target_id>  (353) 
1

>  <reference_id>  (353) 
99

>  <inspiration_ids>  (353) 
[99, 68]

>  <energy_score>  (353) 
-18.055497885220575

>  <distance_score>  (353) 
14.87553039760246

>  <path>  (353) 
/opt/xchem-fragalysis-2/maxwin/BulkDock/SCRATCH/511025/C58022-P99/C58022-P99.minimised.mol

>  <scratch_subdir>  (353) 
/opt/xchem-fragalysis-2/maxwin/BulkDock/SCRATCH/511025/C58022-P99

>  <fragmenstein_runtime>  (353) 
20.135864973068237

>  <fragmenstein_outcome>  (353) 
too moved

>  <fragmenstein_mode>  (353) 
expansion

>  <fragmenstein_error>  (353) 


$$$$
C58022-P68
     RDKit          3D

 40 42  0  0  0  0  0  0  0  0999 V2000
  -11.8034  -23.6751   12.6480 C   0  0  0  0  0  0  0  0  0  0  0  0
  -10.4626  -23.4542   13.1791 N   0  0  0  0  0  0  0  0  0  0  0  0
   -9.7776  -24.8057   13.4988 C   0  0  0  0  0  0  0  0  0  0  0  0
  -10.3962  -25.8363   14.5520 C   0  0  0  0  0  0  0  0  0  0  0  0
   -9.6986  -27.2156   14.6890 C   0  0  0  0  0  0  0  0  0  0  0  0
   -8.3212  -27.3147   14.9681 C   0  0  0  0  0  0  0  0  0  0  0  0
   -7.6536  -28.5595   15.0996 C   0  0  0  0  0  0  0  0  0  0  0  0
   -8.3950  -29.7432   14.9962 C   0  0  0  0  0  0  0  0  0  0  0  0
   -8.0521  -31.0692   15.1636 N   0  0  0  0  0  0  0  0  0  0  0  0
   -9.1925  -31.7002   15.0003 C   0  0  0  0  0  0  0  0  0  0  0  0
  -10.2755  -30.8975   14.7771 O   0  0  0  0  0  0  0  0  0  0  0  0
   -9.7524  -29.6299   14.7440 C   0  0  0  0  0  0  0  0  0  0  0  0
  -10.4434  -28.4169   14.5890 C   0  0  0  0  0  0  0  0  0  0  0  0
   -9.6391  -22.6131   12.2154 C   0  0  0  0  0  0  0  0  0  0  0  0
  -10.0247  -21.2428   11.4267 C   0  0  0  0  0  0  0  0  0  0  0  0
  -10.9072  -21.3677   10.1863 C   0  0  0  0  0  0  0  0  0  0  0  0
  -11.3534  -19.9419    9.8811 C   0  0  0  0  0  0  0  0  0  0  0  0
  -11.5711  -19.3650   11.1954 N   0  0  0  0  0  0  0  0  0  0  0  0
  -10.6341  -20.0142   12.1252 C   0  0  0  0  0  0  0  0  0  0  0  0
  -12.4207  -24.2337   13.3580 H   0  0  0  0  0  0  0  0  0  0  0  0
  -11.7855  -24.2208   11.6986 H   0  0  0  0  0  0  0  0  0  0  0  0
  -12.3191  -22.7212   12.4996 H   0  0  0  0  0  0  0  0  0  0  0  0
   -8.7697  -24.5569   13.8540 H   0  0  0  0  0  0  0  0  0  0  0  0
   -9.6519  -25.3437   12.5496 H   0  0  0  0  0  0  0  0  0  0  0  0
  -10.4082  -25.3639   15.5417 H   0  0  0  0  0  0  0  0  0  0  0  0
  -11.4399  -26.0196   14.2735 H   0  0  0  0  0  0  0  0  0  0  0  0
   -7.7277  -26.4086   15.0874 H   0  0  0  0  0  0  0  0  0  0  0  0
   -6.5947  -28.5993   15.3321 H   0  0  0  0  0  0  0  0  0  0  0  0
   -9.3820  -32.7636   15.0335 H   0  0  0  0  0  0  0  0  0  0  0  0
  -11.5139  -28.4125   14.4156 H   0  0  0  0  0  0  0  0  0  0  0  0
   -9.3070  -23.2939   11.4183 H   0  0  0  0  0  0  0  0  0  0  0  0
   -8.7336  -22.3605   12.7823 H   0  0  0  0  0  0  0  0  0  0  0  0
   -9.0484  -20.9012   11.0443 H   0  0  0  0  0  0  0  0  0  0  0  0
  -10.3661  -21.8110    9.3442 H   0  0  0  0  0  0  0  0  0  0  0  0
  -11.7814  -21.9947   10.3889 H   0  0  0  0  0  0  0  0  0  0  0  0
  -12.2714  -19.9294    9.2861 H   0  0  0  0  0  0  0  0  0  0  0  0
  -10.5850  -19.4195    9.3152 H   0  0  0  0  0  0  0  0  0  0  0  0
  -11.4730  -18.3507   11.2008 H   0  0  0  0  0  0  0  0  0  0  0  0
   -9.8585  -19.2789   12.3284 H   0  0  0  0  0  0  0  0  0  0  0  0
  -11.1484  -20.2801   13.0526 H   0  0  0  0  0  0  0  0  0  0  0  0
  1  2  1  0
  2  3  1  0
  3  4  1  0
  4  5  1  0
  5  6  2  0
  6  7  1  0
  7  8  2  0
  8  9  1  0
  9 10  2  0
 10 11  1  0
 11 12  1  0
 12 13  2  0
  2 14  1  0
 14 15  1  0
 15 16  1  0
 16 17  1  0
 17 18  1  0
 18 19  1  0
 13  5  1  0
 19 15  1  0
 12  8  1  0
  1 20  1  0
  1 21  1  0
  1 22  1  0
  3 23  1  0
  3 24  1  0
  4 25  1  0
  4 26  1  0
  6 27  1  0
  7 28  1  0
 10 29  1  0
 13 30  1  0
 14 31  1  0
 14 32  1  0
 15 33  1  0
 16 34  1  0
 16 35  1  0
 17 36  1  0
 17 37  1  0
 18 38  1  0
 19 39  1  0
 19 40  1  0
M  END
>  <Energy>  (354) 
69.18487433626548

>  <compound_id>  (354) 
58022

>  <target_id>  (354) 
1

>  <reference_id>  (354) 
68

>  <inspiration_ids>  (354) 
[99, 68]

>  <energy_score>  (354) 
-7.376960245598866

>  <distance_score>  (354) 
14.638574266332116

>  <path>  (354) 
/opt/xchem-fragalysis-2/maxwin/BulkDock/SCRATCH/511025/C58022-P68/C58022-P68.minimised.mol

>  <scratch_subdir>  (354) 
/opt/xchem-fragalysis-2/maxwin/BulkDock/SCRATCH/511025/C58022-P68

>  <fragmenstein_runtime>  (354) 
35.35512399673462

>  <fragmenstein_outcome>  (354) 
too moved

>  <fragmenstein_mode>  (354) 
expansion

>  <fragmenstein_error>  (354) 


$$$$
C58027-P99
     RDKit          3D

 52 54  0  0  0  0  0  0  0  0999 V2000
  -13.1908  -16.1282   14.6192 C   0  0  0  0  0  0  0  0  0  0  0  0
  -12.1397  -15.4388   13.8998 O   0  0  0  0  0  0  0  0  0  0  0  0
  -12.3157  -13.9803   13.8172 C   0  0  0  0  0  0  0  0  0  0  0  0
  -13.2659  -13.6577   12.6701 C   0  0  0  0  0  0  0  0  0  0  0  0
  -10.9831  -12.9041   13.8196 C   0  0  0  0  0  0  0  0  0  0  0  0
   -9.7995  -13.2503   12.9122 C   0  0  0  0  0  0  0  0  0  0  0  0
  -10.0543  -14.2219   12.2623 O   0  0  0  0  0  0  0  0  0  0  0  0
   -8.5187  -12.4516   13.0236 N   0  0  0  0  0  0  0  0  0  0  0  0
   -7.0462  -12.7170   12.3878 C   0  0  0  0  0  0  0  0  0  0  0  0
   -5.5736  -12.1253   11.2821 C   0  0  0  0  0  0  0  0  0  0  0  0
   -5.2694  -12.9971    9.0839 C   0  0  0  0  0  0  0  0  0  0  0  0
   -5.4589  -10.6681    8.7176 C   0  0  0  0  0  0  0  0  0  0  0  0
   -5.3469   -9.0938    9.8081 N   0  0  0  0  0  0  0  0  0  0  0  0
   -6.5577   -7.5140    9.5599 C   0  0  0  0  0  0  0  0  0  0  0  0
   -7.1026   -5.6201    8.8409 C   0  0  0  0  0  0  0  0  0  0  0  0
   -7.1701   -5.1694    7.2257 C   0  0  0  0  0  0  0  0  0  0  0  0
   -7.4186   -4.0406    6.3862 C   0  0  0  0  0  0  0  0  0  0  0  0
   -8.0012   -2.9599    6.8901 C   0  0  0  0  0  0  0  0  0  0  0  0
   -8.1519   -1.8948    6.0671 N   0  0  0  0  0  0  0  0  0  0  0  0
   -8.9143   -0.8869    6.4995 C   0  0  0  0  0  0  0  0  0  0  0  0
   -9.5225   -0.9203    7.7209 C   0  0  0  0  0  0  0  0  0  0  0  0
   -9.3051   -2.0529    8.5145 C   0  0  0  0  0  0  0  0  0  0  0  0
   -8.4989   -3.1793    8.1587 C   0  0  0  0  0  0  0  0  0  0  0  0
   -8.1312   -4.5584    8.9834 C   0  0  0  0  0  0  0  0  0  0  0  0
   -4.4278  -10.2453   10.9401 C   0  0  0  0  0  0  0  0  0  0  0  0
  -13.3185  -15.6954   15.6156 H   0  0  0  0  0  0  0  0  0  0  0  0
  -12.9436  -17.1847   14.7339 H   0  0  0  0  0  0  0  0  0  0  0  0
  -14.1324  -16.0443   14.0702 H   0  0  0  0  0  0  0  0  0  0  0  0
  -12.8554  -13.6823   14.7291 H   0  0  0  0  0  0  0  0  0  0  0  0
  -12.7118  -13.4406   11.7608 H   0  0  0  0  0  0  0  0  0  0  0  0
  -13.8625  -12.7734   12.9131 H   0  0  0  0  0  0  0  0  0  0  0  0
  -13.9558  -14.4764   12.4487 H   0  0  0  0  0  0  0  0  0  0  0  0
  -10.6037  -12.8413   14.8315 H   0  0  0  0  0  0  0  0  0  0  0  0
  -11.3149  -11.9055   13.6177 H   0  0  0  0  0  0  0  0  0  0  0  0
   -8.6313  -11.7367   13.7312 H   0  0  0  0  0  0  0  0  0  0  0  0
   -6.5968  -13.3354   13.1182 H   0  0  0  0  0  0  0  0  0  0  0  0
   -7.6254  -13.1934   11.6058 H   0  0  0  0  0  0  0  0  0  0  0  0
   -6.5621  -11.8506   11.3840 H   0  0  0  0  0  0  0  0  0  0  0  0
   -4.2417  -13.2542    8.6184 H   0  0  0  0  0  0  0  0  0  0  0  0
   -5.9174  -13.9352    9.1405 H   0  0  0  0  0  0  0  0  0  0  0  0
   -6.2239  -10.0006    7.9924 H   0  0  0  0  0  0  0  0  0  0  0  0
   -4.3902  -10.3748    8.1522 H   0  0  0  0  0  0  0  0  0  0  0  0
   -7.4529   -8.1076    9.4755 H   0  0  0  0  0  0  0  0  0  0  0  0
   -6.0943   -7.1868   10.4916 H   0  0  0  0  0  0  0  0  0  0  0  0
   -6.9276   -5.9102    6.4376 H   0  0  0  0  0  0  0  0  0  0  0  0
   -7.1771   -4.0883    5.3282 H   0  0  0  0  0  0  0  0  0  0  0  0
   -9.0308   -0.0495    5.8217 H   0  0  0  0  0  0  0  0  0  0  0  0
  -10.1473   -0.1068    8.0671 H   0  0  0  0  0  0  0  0  0  0  0  0
   -9.7779   -2.0129    9.4880 H   0  0  0  0  0  0  0  0  0  0  0  0
   -8.9851   -4.6627    9.6604 H   0  0  0  0  0  0  0  0  0  0  0  0
   -3.4847  -10.1372   10.4238 H   0  0  0  0  0  0  0  0  0  0  0  0
   -4.2922   -9.5699   11.8267 H   0  0  0  0  0  0  0  0  0  0  0  0
  1  2  1  0
  2  3  1  0
  3  4  1  0
  3  5  1  0
  5  6  1  0
  6  7  2  0
  6  8  1  0
  8  9  1  0
  9 10  1  0
 10 11  1  0
 11 12  1  0
 12 13  1  0
 13 14  1  0
 14 15  1  0
 15 16  2  0
 16 17  1  0
 17 18  2  0
 18 19  1  0
 19 20  2  0
 20 21  1  0
 21 22  2  0
 22 23  1  0
 23 24  2  0
 13 25  1  0
 25 10  1  0
 24 15  1  0
 23 18  1  0
  1 26  1  0
  1 27  1  0
  1 28  1  0
  3 29  1  0
  4 30  1  0
  4 31  1  0
  4 32  1  0
  5 33  1  0
  5 34  1  0
  8 35  1  0
  9 36  1  0
  9 37  1  0
 10 38  1  0
 11 39  1  0
 11 40  1  0
 12 41  1  0
 12 42  1  0
 14 43  1  0
 14 44  1  0
 16 45  1  0
 17 46  1  0
 20 47  1  0
 21 48  1  0
 22 49  1  0
 24 50  1  0
 25 51  1  0
 25 52  1  0
M  END
>  <Energy>  (355) 
1460.6943406612188

>  <compound_id>  (355) 
58027

>  <target_id>  (355) 
1

>  <reference_id>  (355) 
99

>  <inspiration_ids>  (355) 
[99, 68]

>  <energy_score>  (355) 
1382.4019473871024

>  <distance_score>  (355) 
15.992984806583388

>  <path>  (355) 
/opt/xchem-fragalysis-2/maxwin/BulkDock/SCRATCH/511025/C58027-P99/C58027-P99.minimised.mol

>  <scratch_subdir>  (355) 
/opt/xchem-fragalysis-2/maxwin/BulkDock/SCRATCH/511025/C58027-P99

>  <fragmenstein_runtime>  (355) 
32.28723216056824

>  <fragmenstein_outcome>  (355) 
too moved

>  <fragmenstein_mode>  (355) 
expansion

>  <fragmenstein_error>  (355) 


$$$$
C58027-P68
     RDKit          3D

 52 54  0  0  0  0  0  0  0  0999 V2000
   -3.9728  -21.3366   18.1394 C   0  0  0  0  0  0  0  0  0  0  0  0
   -4.2819  -19.9405   17.9532 O   0  0  0  0  0  0  0  0  0  0  0  0
   -3.1596  -19.0237   17.9459 C   0  0  0  0  0  0  0  0  0  0  0  0
   -2.5172  -19.0046   19.3385 C   0  0  0  0  0  0  0  0  0  0  0  0
   -3.5507  -17.4881   17.5602 C   0  0  0  0  0  0  0  0  0  0  0  0
   -3.3696  -16.9962   16.0412 C   0  0  0  0  0  0  0  0  0  0  0  0
   -2.3181  -17.2597   15.5303 O   0  0  0  0  0  0  0  0  0  0  0  0
   -4.5904  -16.3677   15.4714 N   0  0  0  0  0  0  0  0  0  0  0  0
   -5.0048  -15.8644   13.7407 C   0  0  0  0  0  0  0  0  0  0  0  0
   -5.4804  -13.9322   12.9777 C   0  0  0  0  0  0  0  0  0  0  0  0
   -5.0434  -12.0250   12.4875 C   0  0  0  0  0  0  0  0  0  0  0  0
   -5.1487  -10.7481   13.8589 C   0  0  0  0  0  0  0  0  0  0  0  0
   -6.4331  -10.4455   13.5817 N   0  0  0  0  0  0  0  0  0  0  0  0
   -5.5998   -8.8888   12.8998 C   0  0  0  0  0  0  0  0  0  0  0  0
   -5.7022   -7.7655   11.5479 C   0  0  0  0  0  0  0  0  0  0  0  0
   -5.3273   -6.6671   12.1693 C   0  0  0  0  0  0  0  0  0  0  0  0
   -5.8867   -5.5546   11.6029 C   0  0  0  0  0  0  0  0  0  0  0  0
   -7.0428   -5.0249   10.1963 C   0  0  0  0  0  0  0  0  0  0  0  0
   -8.0966   -4.1614    9.6100 N   0  0  0  0  0  0  0  0  0  0  0  0
   -8.5939   -3.6597    8.4415 C   0  0  0  0  0  0  0  0  0  0  0  0
   -8.1118   -4.1314    7.3353 C   0  0  0  0  0  0  0  0  0  0  0  0
   -7.3715   -5.1989    7.7350 C   0  0  0  0  0  0  0  0  0  0  0  0
   -6.8327   -5.9032    9.2736 C   0  0  0  0  0  0  0  0  0  0  0  0
   -6.2069   -7.4378   10.0693 C   0  0  0  0  0  0  0  0  0  0  0  0
   -6.7558  -12.3570   13.0357 C   0  0  0  0  0  0  0  0  0  0  0  0
   -4.8764  -21.9114   17.9207 H   0  0  0  0  0  0  0  0  0  0  0  0
   -3.1793  -21.6418   17.4520 H   0  0  0  0  0  0  0  0  0  0  0  0
   -3.6838  -21.5251   19.1757 H   0  0  0  0  0  0  0  0  0  0  0  0
   -2.4154  -19.3807   17.2259 H   0  0  0  0  0  0  0  0  0  0  0  0
   -3.2567  -18.7382   20.1012 H   0  0  0  0  0  0  0  0  0  0  0  0
   -1.6872  -18.2926   19.3860 H   0  0  0  0  0  0  0  0  0  0  0  0
   -2.1175  -19.9871   19.6070 H   0  0  0  0  0  0  0  0  0  0  0  0
   -4.5288  -17.2401   17.9690 H   0  0  0  0  0  0  0  0  0  0  0  0
   -2.8493  -16.8290   18.0929 H   0  0  0  0  0  0  0  0  0  0  0  0
   -5.2668  -16.2201   16.2134 H   0  0  0  0  0  0  0  0  0  0  0  0
   -5.8165  -16.5747   13.5700 H   0  0  0  0  0  0  0  0  0  0  0  0
   -3.9431  -16.0835   13.7544 H   0  0  0  0  0  0  0  0  0  0  0  0
   -5.5141  -14.6295   12.1516 H   0  0  0  0  0  0  0  0  0  0  0  0
   -4.2243  -12.6365   12.6693 H   0  0  0  0  0  0  0  0  0  0  0  0
   -4.3933  -11.3903   11.9006 H   0  0  0  0  0  0  0  0  0  0  0  0
   -5.5023  -10.6864   14.8559 H   0  0  0  0  0  0  0  0  0  0  0  0
   -4.4653   -9.9436   14.1693 H   0  0  0  0  0  0  0  0  0  0  0  0
   -5.8274   -8.2808   13.7915 H   0  0  0  0  0  0  0  0  0  0  0  0
   -4.5158   -9.0143   12.7668 H   0  0  0  0  0  0  0  0  0  0  0  0
   -4.8773   -6.6243   13.1560 H   0  0  0  0  0  0  0  0  0  0  0  0
   -5.6062   -4.9411   12.4662 H   0  0  0  0  0  0  0  0  0  0  0  0
   -9.3109   -2.8560    8.5099 H   0  0  0  0  0  0  0  0  0  0  0  0
   -8.3697   -3.8508    6.3332 H   0  0  0  0  0  0  0  0  0  0  0  0
   -7.1000   -5.7013    6.7913 H   0  0  0  0  0  0  0  0  0  0  0  0
   -6.3865   -8.2316    9.3647 H   0  0  0  0  0  0  0  0  0  0  0  0
   -7.7440  -12.5753   13.4770 H   0  0  0  0  0  0  0  0  0  0  0  0
   -7.2061  -12.4582   12.0445 H   0  0  0  0  0  0  0  0  0  0  0  0
  1  2  1  0
  2  3  1  0
  3  4  1  0
  3  5  1  0
  5  6  1  0
  6  7  2  0
  6  8  1  0
  8  9  1  0
  9 10  1  0
 10 11  1  0
 11 12  1  0
 12 13  1  0
 13 14  1  0
 14 15  1  0
 15 16  2  0
 16 17  1  0
 17 18  2  0
 18 19  1  0
 19 20  2  0
 20 21  1  0
 21 22  2  0
 22 23  1  0
 23 24  2  0
 13 25  1  0
 25 10  1  0
 24 15  1  0
 23 18  1  0
  1 26  1  0
  1 27  1  0
  1 28  1  0
  3 29  1  0
  4 30  1  0
  4 31  1  0
  4 32  1  0
  5 33  1  0
  5 34  1  0
  8 35  1  0
  9 36  1  0
  9 37  1  0
 10 38  1  0
 11 39  1  0
 11 40  1  0
 12 41  1  0
 12 42  1  0
 14 43  1  0
 14 44  1  0
 16 45  1  0
 17 46  1  0
 20 47  1  0
 21 48  1  0
 22 49  1  0
 24 50  1  0
 25 51  1  0
 25 52  1  0
M  END
>  <Energy>  (356) 
1137.8947541124101

>  <compound_id>  (356) 
58027

>  <target_id>  (356) 
1

>  <reference_id>  (356) 
68

>  <inspiration_ids>  (356) 
[99, 68]

>  <energy_score>  (356) 
1059.6023608382545

>  <distance_score>  (356) 
14.206038470091416

>  <path>  (356) 
/opt/xchem-fragalysis-2/maxwin/BulkDock/SCRATCH/511025/C58027-P68/C58027-P68.minimised.mol

>  <scratch_subdir>  (356) 
/opt/xchem-fragalysis-2/maxwin/BulkDock/SCRATCH/511025/C58027-P68

>  <fragmenstein_runtime>  (356) 
52.296411752700806

>  <fragmenstein_outcome>  (356) 
too moved

>  <fragmenstein_mode>  (356) 
expansion

>  <fragmenstein_error>  (356) 


$$$$
C58036-P99
     RDKit          3D

 40 42  0  0  0  0  0  0  0  0999 V2000
  -10.0494  -26.8995   16.7453 O   0  0  0  0  0  0  0  0  0  0  0  0
  -10.4472  -27.5604   15.5213 S   0  0  0  0  0  0  0  0  0  0  0  0
   -9.5683  -28.5115   14.8646 O   0  0  0  0  0  0  0  0  0  0  0  0
  -10.7251  -26.3332   14.3501 N   0  0  0  0  0  0  0  0  0  0  0  0
   -9.5472  -25.2917   14.2868 C   0  0  0  0  0  0  0  0  0  0  0  0
   -9.6081  -24.3656   13.0317 C   0  0  0  0  0  0  0  0  0  0  0  0
   -8.6293  -23.1136   12.9679 C   0  0  0  0  0  0  0  0  0  0  0  0
   -9.0371  -22.1313   11.8653 C   0  0  0  0  0  0  0  0  0  0  0  0
   -7.7744  -21.4655   11.3147 C   0  0  0  0  0  0  0  0  0  0  0  0
   -6.6674  -22.0415   12.1655 C   0  0  0  0  0  0  0  0  0  0  0  0
   -7.2197  -23.3343   12.6242 N   0  0  0  0  0  0  0  0  0  0  0  0
  -11.9573  -28.5291   15.9121 C   0  0  0  0  0  0  0  0  0  0  0  0
  -12.5773  -28.2322   17.1201 C   0  0  0  0  0  0  0  0  0  0  0  0
  -13.0692  -29.2753   17.9225 C   0  0  0  0  0  0  0  0  0  0  0  0
  -12.8862  -30.6223   17.6263 C   0  0  0  0  0  0  0  0  0  0  0  0
  -13.1348  -31.5716   18.5575 N   0  0  0  0  0  0  0  0  0  0  0  0
  -12.8180  -32.8512   18.2569 C   0  0  0  0  0  0  0  0  0  0  0  0
  -12.3336  -33.2496   17.0263 C   0  0  0  0  0  0  0  0  0  0  0  0
  -12.1366  -32.2725   16.0519 C   0  0  0  0  0  0  0  0  0  0  0  0
  -12.3763  -30.9214   16.3494 C   0  0  0  0  0  0  0  0  0  0  0  0
  -11.9950  -29.8709   15.4641 C   0  0  0  0  0  0  0  0  0  0  0  0
  -10.7607  -26.7993   13.4403 H   0  0  0  0  0  0  0  0  0  0  0  0
   -9.6069  -24.6809   15.1937 H   0  0  0  0  0  0  0  0  0  0  0  0
   -8.5991  -25.8400   14.2746 H   0  0  0  0  0  0  0  0  0  0  0  0
  -10.6350  -23.9821   12.9629 H   0  0  0  0  0  0  0  0  0  0  0  0
   -9.4570  -24.9808   12.1353 H   0  0  0  0  0  0  0  0  0  0  0  0
   -8.6791  -22.6122   13.9424 H   0  0  0  0  0  0  0  0  0  0  0  0
   -9.7051  -21.4110   12.3310 H   0  0  0  0  0  0  0  0  0  0  0  0
   -9.5705  -22.6357   11.0513 H   0  0  0  0  0  0  0  0  0  0  0  0
   -7.6412  -21.7532   10.2651 H   0  0  0  0  0  0  0  0  0  0  0  0
   -7.8161  -20.3762   11.3545 H   0  0  0  0  0  0  0  0  0  0  0  0
   -6.4353  -21.4069   13.0247 H   0  0  0  0  0  0  0  0  0  0  0  0
   -5.7465  -22.1898   11.5942 H   0  0  0  0  0  0  0  0  0  0  0  0
   -6.6929  -23.6692   13.4297 H   0  0  0  0  0  0  0  0  0  0  0  0
  -12.5389  -27.2256   17.5365 H   0  0  0  0  0  0  0  0  0  0  0  0
  -13.5113  -28.9965   18.8645 H   0  0  0  0  0  0  0  0  0  0  0  0
  -12.9817  -33.5687   19.0549 H   0  0  0  0  0  0  0  0  0  0  0  0
  -12.1045  -34.2906   16.8317 H   0  0  0  0  0  0  0  0  0  0  0  0
  -11.7325  -32.5641   15.0860 H   0  0  0  0  0  0  0  0  0  0  0  0
  -11.4899  -30.1308   14.5338 H   0  0  0  0  0  0  0  0  0  0  0  0
  1  2  2  0
  2  3  2  0
  2  4  1  0
  4  5  1  0
  5  6  1  0
  6  7  1  0
  7  8  1  0
  8  9  1  0
  9 10  1  0
 10 11  1  0
  2 12  1  0
 12 13  2  0
 13 14  1  0
 14 15  2  0
 15 16  1  0
 16 17  2  0
 17 18  1  0
 18 19  2  0
 19 20  1  0
 20 21  2  0
 11  7  1  0
 21 12  1  0
 20 15  1  0
  4 22  1  0
  5 23  1  0
  5 24  1  0
  6 25  1  0
  6 26  1  0
  7 27  1  0
  8 28  1  0
  8 29  1  0
  9 30  1  0
  9 31  1  0
 10 32  1  0
 10 33  1  0
 11 34  1  0
 13 35  1  0
 14 36  1  0
 17 37  1  0
 18 38  1  0
 19 39  1  0
 21 40  1  0
M  END
>  <Energy>  (357) 
10.103076488529483

>  <compound_id>  (357) 
58036

>  <target_id>  (357) 
1

>  <reference_id>  (357) 
99

>  <inspiration_ids>  (357) 
[99, 68]

>  <energy_score>  (357) 
-3.6884560902801695

>  <distance_score>  (357) 
14.833691522487458

>  <path>  (357) 
/opt/xchem-fragalysis-2/maxwin/BulkDock/SCRATCH/511025/C58036-P99/C58036-P99.minimised.mol

>  <scratch_subdir>  (357) 
/opt/xchem-fragalysis-2/maxwin/BulkDock/SCRATCH/511025/C58036-P99

>  <fragmenstein_runtime>  (357) 
27.82061505317688

>  <fragmenstein_outcome>  (357) 
too moved

>  <fragmenstein_mode>  (357) 
expansion

>  <fragmenstein_error>  (357) 


$$$$
C58036-P68
     RDKit          3D

 40 42  0  0  0  0  0  0  0  0999 V2000
  -10.5977  -21.0475   17.1383 O   0  0  0  0  0  0  0  0  0  0  0  0
  -10.7679  -21.7269   15.8690 S   0  0  0  0  0  0  0  0  0  0  0  0
   -9.6608  -22.4215   15.2345 O   0  0  0  0  0  0  0  0  0  0  0  0
  -11.3283  -20.4700   14.5950 N   0  0  0  0  0  0  0  0  0  0  0  0
  -11.1181  -18.7146   14.8305 C   0  0  0  0  0  0  0  0  0  0  0  0
  -10.3504  -17.2563   13.7218 C   0  0  0  0  0  0  0  0  0  0  0  0
  -10.4019  -15.3586   13.5416 C   0  0  0  0  0  0  0  0  0  0  0  0
   -9.4566  -14.1763   14.1289 C   0  0  0  0  0  0  0  0  0  0  0  0
   -9.2092  -13.0811   13.0826 C   0  0  0  0  0  0  0  0  0  0  0  0
  -10.3861  -13.3083   12.1913 C   0  0  0  0  0  0  0  0  0  0  0  0
  -11.2443  -14.4135   12.8003 N   0  0  0  0  0  0  0  0  0  0  0  0
  -11.8506  -23.1987   16.2872 C   0  0  0  0  0  0  0  0  0  0  0  0
  -12.3138  -23.3332   17.6060 C   0  0  0  0  0  0  0  0  0  0  0  0
  -12.6329  -24.6058   18.1585 C   0  0  0  0  0  0  0  0  0  0  0  0
  -12.5006  -25.7981   17.4526 C   0  0  0  0  0  0  0  0  0  0  0  0
  -12.8325  -26.9854   18.0178 N   0  0  0  0  0  0  0  0  0  0  0  0
  -12.6858  -28.1057   17.2830 C   0  0  0  0  0  0  0  0  0  0  0  0
  -12.2109  -28.1061   15.9857 C   0  0  0  0  0  0  0  0  0  0  0  0
  -11.8672  -26.8821   15.4110 C   0  0  0  0  0  0  0  0  0  0  0  0
  -12.0155  -25.6875   16.1343 C   0  0  0  0  0  0  0  0  0  0  0  0
  -11.6808  -24.4070   15.5762 C   0  0  0  0  0  0  0  0  0  0  0  0
  -10.8444  -20.7074   13.7255 H   0  0  0  0  0  0  0  0  0  0  0  0
  -12.1165  -18.4533   15.1875 H   0  0  0  0  0  0  0  0  0  0  0  0
  -10.5355  -18.7723   15.7584 H   0  0  0  0  0  0  0  0  0  0  0  0
  -10.7984  -17.3791   12.8286 H   0  0  0  0  0  0  0  0  0  0  0  0
   -9.3015  -17.3942   13.4302 H   0  0  0  0  0  0  0  0  0  0  0  0
   -9.8993  -15.5487   12.6417 H   0  0  0  0  0  0  0  0  0  0  0  0
   -8.5549  -14.5447   14.6089 H   0  0  0  0  0  0  0  0  0  0  0  0
   -9.9734  -13.5509   14.8282 H   0  0  0  0  0  0  0  0  0  0  0  0
   -9.2111  -12.0965   13.5636 H   0  0  0  0  0  0  0  0  0  0  0  0
   -8.2628  -13.0934   12.5562 H   0  0  0  0  0  0  0  0  0  0  0  0
  -10.8042  -12.3309   12.1068 H   0  0  0  0  0  0  0  0  0  0  0  0
  -10.2532  -13.4016   11.1248 H   0  0  0  0  0  0  0  0  0  0  0  0
  -11.7744  -14.8666   12.0572 H   0  0  0  0  0  0  0  0  0  0  0  0
  -12.3516  -22.4647   18.2622 H   0  0  0  0  0  0  0  0  0  0  0  0
  -12.9609  -24.6593   19.1956 H   0  0  0  0  0  0  0  0  0  0  0  0
  -12.9652  -29.0276   17.7832 H   0  0  0  0  0  0  0  0  0  0  0  0
  -12.1151  -29.0301   15.4290 H   0  0  0  0  0  0  0  0  0  0  0  0
  -11.4888  -26.8618   14.3918 H   0  0  0  0  0  0  0  0  0  0  0  0
  -11.2126  -24.3710   14.5923 H   0  0  0  0  0  0  0  0  0  0  0  0
  1  2  2  0
  2  3  2  0
  2  4  1  0
  4  5  1  0
  5  6  1  0
  6  7  1  0
  7  8  1  0
  8  9  1  0
  9 10  1  0
 10 11  1  0
  2 12  1  0
 12 13  2  0
 13 14  1  0
 14 15  2  0
 15 16  1  0
 16 17  2  0
 17 18  1  0
 18 19  2  0
 19 20  1  0
 20 21  2  0
 11  7  1  0
 21 12  1  0
 20 15  1  0
  4 22  1  0
  5 23  1  0
  5 24  1  0
  6 25  1  0
  6 26  1  0
  7 27  1  0
  8 28  1  0
  8 29  1  0
  9 30  1  0
  9 31  1  0
 10 32  1  0
 10 33  1  0
 11 34  1  0
 13 35  1  0
 14 36  1  0
 17 37  1  0
 18 38  1  0
 19 39  1  0
 21 40  1  0
M  END
>  <Energy>  (358) 
234.07063410571374

>  <compound_id>  (358) 
58036

>  <target_id>  (358) 
1

>  <reference_id>  (358) 
68

>  <inspiration_ids>  (358) 
[99, 68]

>  <energy_score>  (358) 
220.27910152690777

>  <distance_score>  (358) 
13.931321908539154

>  <path>  (358) 
/opt/xchem-fragalysis-2/maxwin/BulkDock/SCRATCH/511025/C58036-P68/C58036-P68.minimised.mol

>  <scratch_subdir>  (358) 
/opt/xchem-fragalysis-2/maxwin/BulkDock/SCRATCH/511025/C58036-P68

>  <fragmenstein_runtime>  (358) 
19.737614631652832

>  <fragmenstein_outcome>  (358) 
too moved

>  <fragmenstein_mode>  (358) 
expansion

>  <fragmenstein_error>  (358) 


$$$$
C92072-P98
     RDKit          3D

 36 38  0  0  0  0  0  0  0  0999 V2000
    3.7681  -11.3741   16.9856 C   0  0  0  0  0  0  0  0  0  0  0  0
    3.9534  -12.4952   18.3873 C   0  0  0  0  0  0  0  0  0  0  0  0
    5.1953  -12.1884   18.9958 N   0  0  0  0  0  0  0  0  0  0  0  0
    5.3536  -12.9289   20.0319 N   0  0  0  0  0  0  0  0  0  0  0  0
    4.0767  -13.1469   20.3607 C   0  0  0  0  0  0  0  0  0  0  0  0
    3.6526  -12.7558   21.4303 O   0  0  0  0  0  0  0  0  0  0  0  0
    3.2044  -14.0894   18.9208 C   0  0  0  0  0  0  0  0  0  0  0  0
    1.9312  -15.1083   20.1198 C   0  0  0  0  0  0  0  0  0  0  0  0
    0.3337  -16.3615   20.7951 C   0  0  0  0  0  0  0  0  0  0  0  0
   -1.0555  -17.7353   21.0615 N   0  0  0  0  0  0  0  0  0  0  0  0
   -1.3428  -18.9725   22.4574 C   0  0  0  0  0  0  0  0  0  0  0  0
   -0.6120  -19.0465   23.4583 O   0  0  0  0  0  0  0  0  0  0  0  0
   -2.6696  -20.4590   22.5284 C   0  0  0  0  0  0  0  0  0  0  0  0
   -3.8598  -20.5648   23.6815 C   0  0  0  0  0  0  0  0  0  0  0  0
   -5.5393  -20.6696   22.8306 C   0  0  0  0  0  0  0  0  0  0  0  0
   -5.7830  -20.6478   21.5003 C   0  0  0  0  0  0  0  0  0  0  0  0
   -4.7769  -20.5678   20.5587 N   0  0  0  0  0  0  0  0  0  0  0  0
   -4.9602  -20.6283   19.2021 C   0  0  0  0  0  0  0  0  0  0  0  0
   -3.7203  -20.8191   18.6659 C   0  0  0  0  0  0  0  0  0  0  0  0
   -2.7661  -20.8440   19.6391 N   0  0  0  0  0  0  0  0  0  0  0  0
   -3.3407  -20.6043   20.8107 C   0  0  0  0  0  0  0  0  0  0  0  0
    2.9389  -10.6757   17.0818 H   0  0  0  0  0  0  0  0  0  0  0  0
    3.7979  -11.7176   15.9576 H   0  0  0  0  0  0  0  0  0  0  0  0
    4.6663  -10.7296   16.9999 H   0  0  0  0  0  0  0  0  0  0  0  0
    5.6203  -13.8397   19.6963 H   0  0  0  0  0  0  0  0  0  0  0  0
    3.8605  -14.8183   18.4130 H   0  0  0  0  0  0  0  0  0  0  0  0
    2.3509  -14.6052   20.9202 H   0  0  0  0  0  0  0  0  0  0  0  0
    1.8523  -15.2358   18.9644 H   0  0  0  0  0  0  0  0  0  0  0  0
    0.0034  -15.8198   21.6593 H   0  0  0  0  0  0  0  0  0  0  0  0
   -0.3024  -16.1085   19.9762 H   0  0  0  0  0  0  0  0  0  0  0  0
   -1.8226  -17.8014   20.3947 H   0  0  0  0  0  0  0  0  0  0  0  0
   -4.0838  -20.0124   24.5763 H   0  0  0  0  0  0  0  0  0  0  0  0
   -6.3341  -21.2500   23.2052 H   0  0  0  0  0  0  0  0  0  0  0  0
   -6.7787  -20.8367   21.1107 H   0  0  0  0  0  0  0  0  0  0  0  0
   -5.9403  -20.5825   18.7506 H   0  0  0  0  0  0  0  0  0  0  0  0
   -3.4578  -20.9556   17.6252 H   0  0  0  0  0  0  0  0  0  0  0  0
  1  2  1  0
  2  3  2  0
  3  4  1  0
  4  5  1  0
  5  6  2  0
  5  7  1  0
  7  8  1  0
  8  9  1  0
  9 10  1  0
 10 11  1  0
 11 12  2  0
 11 13  1  0
 13 14  2  0
 14 15  1  0
 15 16  2  0
 16 17  1  0
 17 18  1  0
 18 19  2  0
 19 20  1  0
 20 21  2  0
  7  2  1  0
 21 13  1  0
 21 17  1  0
  1 22  1  0
  1 23  1  0
  1 24  1  0
  4 25  1  0
  7 26  1  0
  8 27  1  0
  8 28  1  0
  9 29  1  0
  9 30  1  0
 10 31  1  0
 14 32  1  0
 15 33  1  0
 16 34  1  0
 18 35  1  0
 19 36  1  0
M  END
>  <Energy>  (359) 
933.603374633464

>  <compound_id>  (359) 
92072

>  <target_id>  (359) 
1

>  <reference_id>  (359) 
98

>  <inspiration_ids>  (359) 
[98, 45]

>  <energy_score>  (359) 
871.2508392804021

>  <distance_score>  (359) 
11.610508632051042

>  <path>  (359) 
/opt/xchem-fragalysis-2/maxwin/BulkDock/SCRATCH/511025/C92072-P98/C92072-P98.minimised.mol

>  <scratch_subdir>  (359) 
/opt/xchem-fragalysis-2/maxwin/BulkDock/SCRATCH/511025/C92072-P98

>  <fragmenstein_runtime>  (359) 
23.565399408340454

>  <fragmenstein_outcome>  (359) 
too moved

>  <fragmenstein_mode>  (359) 
expansion

>  <fragmenstein_error>  (359) 


$$$$
C92072-P45
     RDKit          3D

 36 38  0  0  0  0  0  0  0  0999 V2000
   10.3678  -16.3237   15.6408 C   0  0  0  0  0  0  0  0  0  0  0  0
   11.2795  -16.5330   16.8072 C   0  0  0  0  0  0  0  0  0  0  0  0
   12.3997  -15.8702   16.8587 N   0  0  0  0  0  0  0  0  0  0  0  0
   12.9885  -16.2083   18.0294 N   0  0  0  0  0  0  0  0  0  0  0  0
   12.2915  -17.1255   18.8009 C   0  0  0  0  0  0  0  0  0  0  0  0
   12.6476  -17.5252   19.8933 O   0  0  0  0  0  0  0  0  0  0  0  0
   10.9662  -17.3736   18.0830 C   0  0  0  0  0  0  0  0  0  0  0  0
   10.3121  -18.8520   18.0135 C   0  0  0  0  0  0  0  0  0  0  0  0
    9.6053  -19.3258   19.3597 C   0  0  0  0  0  0  0  0  0  0  0  0
    8.5617  -20.3935   19.6305 N   0  0  0  0  0  0  0  0  0  0  0  0
    8.1613  -21.5700   18.8524 C   0  0  0  0  0  0  0  0  0  0  0  0
    8.5052  -21.9404   17.7640 O   0  0  0  0  0  0  0  0  0  0  0  0
    7.1781  -22.5295   19.6976 C   0  0  0  0  0  0  0  0  0  0  0  0
    7.7526  -23.2441   20.7003 C   0  0  0  0  0  0  0  0  0  0  0  0
    7.0324  -24.2175   21.5262 C   0  0  0  0  0  0  0  0  0  0  0  0
    5.7278  -24.4334   21.3081 C   0  0  0  0  0  0  0  0  0  0  0  0
    5.0973  -23.7244   20.2947 N   0  0  0  0  0  0  0  0  0  0  0  0
    3.7703  -23.7670   19.9443 C   0  0  0  0  0  0  0  0  0  0  0  0
    3.6566  -22.9117   18.8805 C   0  0  0  0  0  0  0  0  0  0  0  0
    4.8890  -22.4033   18.5259 N   0  0  0  0  0  0  0  0  0  0  0  0
    5.7574  -22.8169   19.4345 C   0  0  0  0  0  0  0  0  0  0  0  0
    9.9774  -15.3035   15.6484 H   0  0  0  0  0  0  0  0  0  0  0  0
   10.9322  -16.4697   14.7149 H   0  0  0  0  0  0  0  0  0  0  0  0
    9.5448  -17.0397   15.6604 H   0  0  0  0  0  0  0  0  0  0  0  0
   13.8967  -15.8349   18.2810 H   0  0  0  0  0  0  0  0  0  0  0  0
   10.2991  -16.7747   18.6971 H   0  0  0  0  0  0  0  0  0  0  0  0
   11.0910  -19.5767   17.7520 H   0  0  0  0  0  0  0  0  0  0  0  0
    9.5681  -18.8713   17.2109 H   0  0  0  0  0  0  0  0  0  0  0  0
    9.0941  -18.4386   19.7441 H   0  0  0  0  0  0  0  0  0  0  0  0
   10.4039  -19.5498   20.0769 H   0  0  0  0  0  0  0  0  0  0  0  0
    8.0063  -20.3510   20.4777 H   0  0  0  0  0  0  0  0  0  0  0  0
    8.8128  -23.1253   20.9121 H   0  0  0  0  0  0  0  0  0  0  0  0
    7.5774  -24.7441   22.3025 H   0  0  0  0  0  0  0  0  0  0  0  0
    5.1280  -25.1239   21.8856 H   0  0  0  0  0  0  0  0  0  0  0  0
    3.0439  -24.3513   20.4869 H   0  0  0  0  0  0  0  0  0  0  0  0
    2.7632  -22.6391   18.3334 H   0  0  0  0  0  0  0  0  0  0  0  0
  1  2  1  0
  2  3  2  0
  3  4  1  0
  4  5  1  0
  5  6  2  0
  5  7  1  0
  7  8  1  0
  8  9  1  0
  9 10  1  0
 10 11  1  0
 11 12  2  0
 11 13  1  0
 13 14  2  0
 14 15  1  0
 15 16  2  0
 16 17  1  0
 17 18  1  0
 18 19  2  0
 19 20  1  0
 20 21  2  0
  7  2  1  0
 21 13  1  0
 21 17  1  0
  1 22  1  0
  1 23  1  0
  1 24  1  0
  4 25  1  0
  7 26  1  0
  8 27  1  0
  8 28  1  0
  9 29  1  0
  9 30  1  0
 10 31  1  0
 14 32  1  0
 15 33  1  0
 16 34  1  0
 18 35  1  0
 19 36  1  0
M  END
>  <Energy>  (360) 
70.905284964242782

>  <compound_id>  (360) 
92072

>  <target_id>  (360) 
1

>  <reference_id>  (360) 
45

>  <inspiration_ids>  (360) 
[98, 45]

>  <energy_score>  (360) 
8.552749611157537

>  <distance_score>  (360) 
14.425803150331607

>  <path>  (360) 
/opt/xchem-fragalysis-2/maxwin/BulkDock/SCRATCH/511025/C92072-P45/C92072-P45.minimised.mol

>  <scratch_subdir>  (360) 
/opt/xchem-fragalysis-2/maxwin/BulkDock/SCRATCH/511025/C92072-P45

>  <fragmenstein_runtime>  (360) 
21.229715824127197

>  <fragmenstein_outcome>  (360) 
too moved

>  <fragmenstein_mode>  (360) 
expansion

>  <fragmenstein_error>  (360) 


$$$$
C92072-P98
     RDKit          3D

 36 38  0  0  0  0  0  0  0  0999 V2000
    3.7681  -11.3741   16.9856 C   0  0  0  0  0  0  0  0  0  0  0  0
    3.9534  -12.4952   18.3873 C   0  0  0  0  0  0  0  0  0  0  0  0
    5.1953  -12.1884   18.9958 N   0  0  0  0  0  0  0  0  0  0  0  0
    5.3536  -12.9289   20.0319 N   0  0  0  0  0  0  0  0  0  0  0  0
    4.0767  -13.1469   20.3607 C   0  0  0  0  0  0  0  0  0  0  0  0
    3.6526  -12.7558   21.4303 O   0  0  0  0  0  0  0  0  0  0  0  0
    3.2044  -14.0894   18.9208 C   0  0  0  0  0  0  0  0  0  0  0  0
    1.9312  -15.1083   20.1198 C   0  0  0  0  0  0  0  0  0  0  0  0
    0.3337  -16.3615   20.7951 C   0  0  0  0  0  0  0  0  0  0  0  0
   -1.0555  -17.7353   21.0615 N   0  0  0  0  0  0  0  0  0  0  0  0
   -1.3428  -18.9725   22.4574 C   0  0  0  0  0  0  0  0  0  0  0  0
   -0.6120  -19.0465   23.4583 O   0  0  0  0  0  0  0  0  0  0  0  0
   -2.6696  -20.4590   22.5284 C   0  0  0  0  0  0  0  0  0  0  0  0
   -3.8598  -20.5648   23.6815 C   0  0  0  0  0  0  0  0  0  0  0  0
   -5.5393  -20.6696   22.8306 C   0  0  0  0  0  0  0  0  0  0  0  0
   -5.7830  -20.6478   21.5003 C   0  0  0  0  0  0  0  0  0  0  0  0
   -4.7769  -20.5678   20.5587 N   0  0  0  0  0  0  0  0  0  0  0  0
   -4.9602  -20.6283   19.2021 C   0  0  0  0  0  0  0  0  0  0  0  0
   -3.7203  -20.8191   18.6659 C   0  0  0  0  0  0  0  0  0  0  0  0
   -2.7661  -20.8440   19.6391 N   0  0  0  0  0  0  0  0  0  0  0  0
   -3.3407  -20.6043   20.8107 C   0  0  0  0  0  0  0  0  0  0  0  0
    2.9389  -10.6757   17.0818 H   0  0  0  0  0  0  0  0  0  0  0  0
    3.7979  -11.7176   15.9576 H   0  0  0  0  0  0  0  0  0  0  0  0
    4.6663  -10.7296   16.9999 H   0  0  0  0  0  0  0  0  0  0  0  0
    5.6203  -13.8397   19.6963 H   0  0  0  0  0  0  0  0  0  0  0  0
    3.8605  -14.8183   18.4130 H   0  0  0  0  0  0  0  0  0  0  0  0
    2.3509  -14.6052   20.9202 H   0  0  0  0  0  0  0  0  0  0  0  0
    1.8523  -15.2358   18.9644 H   0  0  0  0  0  0  0  0  0  0  0  0
    0.0034  -15.8198   21.6593 H   0  0  0  0  0  0  0  0  0  0  0  0
   -0.3024  -16.1085   19.9762 H   0  0  0  0  0  0  0  0  0  0  0  0
   -1.8226  -17.8014   20.3947 H   0  0  0  0  0  0  0  0  0  0  0  0
   -4.0838  -20.0124   24.5763 H   0  0  0  0  0  0  0  0  0  0  0  0
   -6.3341  -21.2500   23.2052 H   0  0  0  0  0  0  0  0  0  0  0  0
   -6.7787  -20.8367   21.1107 H   0  0  0  0  0  0  0  0  0  0  0  0
   -5.9403  -20.5825   18.7506 H   0  0  0  0  0  0  0  0  0  0  0  0
   -3.4578  -20.9556   17.6252 H   0  0  0  0  0  0  0  0  0  0  0  0
  1  2  1  0
  2  3  2  0
  3  4  1  0
  4  5  1  0
  5  6  2  0
  5  7  1  0
  7  8  1  0
  8  9  1  0
  9 10  1  0
 10 11  1  0
 11 12  2  0
 11 13  1  0
 13 14  2  0
 14 15  1  0
 15 16  2  0
 16 17  1  0
 17 18  1  0
 18 19  2  0
 19 20  1  0
 20 21  2  0
  7  2  1  0
 21 13  1  0
 21 17  1  0
  1 22  1  0
  1 23  1  0
  1 24  1  0
  4 25  1  0
  7 26  1  0
  8 27  1  0
  8 28  1  0
  9 29  1  0
  9 30  1  0
 10 31  1  0
 14 32  1  0
 15 33  1  0
 16 34  1  0
 18 35  1  0
 19 36  1  0
M  END
>  <Energy>  (361) 
933.603374633464

>  <compound_id>  (361) 
92072

>  <target_id>  (361) 
1

>  <reference_id>  (361) 
98

>  <inspiration_ids>  (361) 
[98, 45]

>  <energy_score>  (361) 
871.2508392804021

>  <distance_score>  (361) 
11.610508632051042

>  <path>  (361) 
/opt/xchem-fragalysis-2/maxwin/BulkDock/SCRATCH/511025/C92072-P98/C92072-P98.minimised.mol

>  <scratch_subdir>  (361) 
/opt/xchem-fragalysis-2/maxwin/BulkDock/SCRATCH/511025/C92072-P98

>  <fragmenstein_runtime>  (361) 
22.739601373672485

>  <fragmenstein_outcome>  (361) 
too moved

>  <fragmenstein_mode>  (361) 
expansion

>  <fragmenstein_error>  (361) 


$$$$
C92072-P45
     RDKit          3D

 36 38  0  0  0  0  0  0  0  0999 V2000
   10.3678  -16.3237   15.6408 C   0  0  0  0  0  0  0  0  0  0  0  0
   11.2795  -16.5330   16.8072 C   0  0  0  0  0  0  0  0  0  0  0  0
   12.3997  -15.8702   16.8587 N   0  0  0  0  0  0  0  0  0  0  0  0
   12.9885  -16.2083   18.0294 N   0  0  0  0  0  0  0  0  0  0  0  0
   12.2915  -17.1255   18.8009 C   0  0  0  0  0  0  0  0  0  0  0  0
   12.6476  -17.5252   19.8933 O   0  0  0  0  0  0  0  0  0  0  0  0
   10.9662  -17.3736   18.0830 C   0  0  0  0  0  0  0  0  0  0  0  0
   10.3121  -18.8520   18.0135 C   0  0  0  0  0  0  0  0  0  0  0  0
    9.6053  -19.3258   19.3597 C   0  0  0  0  0  0  0  0  0  0  0  0
    8.5617  -20.3935   19.6305 N   0  0  0  0  0  0  0  0  0  0  0  0
    8.1613  -21.5700   18.8524 C   0  0  0  0  0  0  0  0  0  0  0  0
    8.5052  -21.9404   17.7640 O   0  0  0  0  0  0  0  0  0  0  0  0
    7.1781  -22.5295   19.6976 C   0  0  0  0  0  0  0  0  0  0  0  0
    7.7526  -23.2441   20.7003 C   0  0  0  0  0  0  0  0  0  0  0  0
    7.0324  -24.2175   21.5262 C   0  0  0  0  0  0  0  0  0  0  0  0
    5.7278  -24.4334   21.3081 C   0  0  0  0  0  0  0  0  0  0  0  0
    5.0973  -23.7244   20.2947 N   0  0  0  0  0  0  0  0  0  0  0  0
    3.7703  -23.7670   19.9443 C   0  0  0  0  0  0  0  0  0  0  0  0
    3.6566  -22.9117   18.8805 C   0  0  0  0  0  0  0  0  0  0  0  0
    4.8890  -22.4033   18.5259 N   0  0  0  0  0  0  0  0  0  0  0  0
    5.7574  -22.8169   19.4345 C   0  0  0  0  0  0  0  0  0  0  0  0
    9.9774  -15.3035   15.6484 H   0  0  0  0  0  0  0  0  0  0  0  0
   10.9322  -16.4697   14.7149 H   0  0  0  0  0  0  0  0  0  0  0  0
    9.5448  -17.0397   15.6604 H   0  0  0  0  0  0  0  0  0  0  0  0
   13.8967  -15.8349   18.2810 H   0  0  0  0  0  0  0  0  0  0  0  0
   10.2991  -16.7747   18.6971 H   0  0  0  0  0  0  0  0  0  0  0  0
   11.0910  -19.5767   17.7520 H   0  0  0  0  0  0  0  0  0  0  0  0
    9.5681  -18.8713   17.2109 H   0  0  0  0  0  0  0  0  0  0  0  0
    9.0941  -18.4386   19.7441 H   0  0  0  0  0  0  0  0  0  0  0  0
   10.4039  -19.5498   20.0769 H   0  0  0  0  0  0  0  0  0  0  0  0
    8.0063  -20.3510   20.4777 H   0  0  0  0  0  0  0  0  0  0  0  0
    8.8128  -23.1253   20.9121 H   0  0  0  0  0  0  0  0  0  0  0  0
    7.5774  -24.7441   22.3025 H   0  0  0  0  0  0  0  0  0  0  0  0
    5.1280  -25.1239   21.8856 H   0  0  0  0  0  0  0  0  0  0  0  0
    3.0439  -24.3513   20.4869 H   0  0  0  0  0  0  0  0  0  0  0  0
    2.7632  -22.6391   18.3334 H   0  0  0  0  0  0  0  0  0  0  0  0
  1  2  1  0
  2  3  2  0
  3  4  1  0
  4  5  1  0
  5  6  2  0
  5  7  1  0
  7  8  1  0
  8  9  1  0
  9 10  1  0
 10 11  1  0
 11 12  2  0
 11 13  1  0
 13 14  2  0
 14 15  1  0
 15 16  2  0
 16 17  1  0
 17 18  1  0
 18 19  2  0
 19 20  1  0
 20 21  2  0
  7  2  1  0
 21 13  1  0
 21 17  1  0
  1 22  1  0
  1 23  1  0
  1 24  1  0
  4 25  1  0
  7 26  1  0
  8 27  1  0
  8 28  1  0
  9 29  1  0
  9 30  1  0
 10 31  1  0
 14 32  1  0
 15 33  1  0
 16 34  1  0
 18 35  1  0
 19 36  1  0
M  END
>  <Energy>  (362) 
70.905284964242782

>  <compound_id>  (362) 
92072

>  <target_id>  (362) 
1

>  <reference_id>  (362) 
45

>  <inspiration_ids>  (362) 
[98, 45]

>  <energy_score>  (362) 
8.552749611157537

>  <distance_score>  (362) 
14.425803150331607

>  <path>  (362) 
/opt/xchem-fragalysis-2/maxwin/BulkDock/SCRATCH/511025/C92072-P45/C92072-P45.minimised.mol

>  <scratch_subdir>  (362) 
/opt/xchem-fragalysis-2/maxwin/BulkDock/SCRATCH/511025/C92072-P45

>  <fragmenstein_runtime>  (362) 
21.45587468147278

>  <fragmenstein_outcome>  (362) 
too moved

>  <fragmenstein_mode>  (362) 
expansion

>  <fragmenstein_error>  (362) 


$$$$
C46271-P40
     RDKit          3D

 46 48  0  0  0  0  0  0  0  0999 V2000
   -7.6470  -13.9787   27.9786 C   0  0  0  0  0  0  0  0  0  0  0  0
   -6.7507  -14.7723   28.9988 C   0  0  0  0  0  0  0  0  0  0  0  0
   -7.1008  -14.5668   31.0187 C   0  0  0  0  0  0  0  0  0  0  0  0
   -6.4257  -13.3842   30.5403 C   0  0  0  0  0  0  0  0  0  0  0  0
   -5.7315  -11.8745   31.7372 N   0  0  0  0  0  0  0  0  0  0  0  0
   -5.6258  -10.0624   31.4898 C   0  0  0  0  0  0  0  0  0  0  0  0
   -6.1842   -9.3640   30.4280 O   0  0  0  0  0  0  0  0  0  0  0  0
   -4.5111   -8.8293   32.5639 C   0  0  0  0  0  0  0  0  0  0  0  0
   -3.8363   -8.9563   33.9184 C   0  0  0  0  0  0  0  0  0  0  0  0
   -2.4545   -8.7090   33.6425 N   0  0  0  0  0  0  0  0  0  0  0  0
   -2.1686   -9.0689   32.2813 C   0  0  0  0  0  0  0  0  0  0  0  0
   -1.0310   -9.2614   31.4784 C   0  0  0  0  0  0  0  0  0  0  0  0
   -0.4567   -8.2269   30.7207 C   0  0  0  0  0  0  0  0  0  0  0  0
   -0.8875   -6.9968   31.0134 C   0  0  0  0  0  0  0  0  0  0  0  0
    0.0375   -5.6093   30.6600 Cl  0  0  0  0  0  0  0  0  0  0  0  0
   -2.0605   -7.0058   31.7420 C   0  0  0  0  0  0  0  0  0  0  0  0
   -3.0587   -8.1853   31.7596 C   0  0  0  0  0  0  0  0  0  0  0  0
   -7.8919  -16.4190   28.1825 N   0  0  0  0  0  0  0  0  0  0  0  0
   -8.2157  -18.3122   28.7783 C   0  0  0  0  0  0  0  0  0  0  0  0
   -7.5594  -18.6300   29.8139 O   0  0  0  0  0  0  0  0  0  0  0  0
   -9.4285  -20.0762   28.1512 C   0  0  0  0  0  0  0  0  0  0  0  0
  -10.7071  -21.2840   29.1869 C   0  0  0  0  0  0  0  0  0  0  0  0
  -10.6052  -22.4183   28.1887 C   0  0  0  0  0  0  0  0  0  0  0  0
  -10.8709  -21.2562   27.2781 C   0  0  0  0  0  0  0  0  0  0  0  0
   -7.1168  -13.1488   27.5245 H   0  0  0  0  0  0  0  0  0  0  0  0
   -8.6383  -13.8416   28.3750 H   0  0  0  0  0  0  0  0  0  0  0  0
   -7.9589  -14.4684   27.0561 H   0  0  0  0  0  0  0  0  0  0  0  0
   -6.2829  -15.2386   31.4607 H   0  0  0  0  0  0  0  0  0  0  0  0
   -7.1872  -13.8202   31.9086 H   0  0  0  0  0  0  0  0  0  0  0  0
   -8.1601  -14.7427   31.2749 H   0  0  0  0  0  0  0  0  0  0  0  0
   -5.4577  -13.9866   30.7339 H   0  0  0  0  0  0  0  0  0  0  0  0
   -5.7837  -13.0303   29.6905 H   0  0  0  0  0  0  0  0  0  0  0  0
   -5.3170  -12.0997   32.6342 H   0  0  0  0  0  0  0  0  0  0  0  0
   -4.1274   -9.3596   34.8814 H   0  0  0  0  0  0  0  0  0  0  0  0
   -1.7539   -8.8702   34.3534 H   0  0  0  0  0  0  0  0  0  0  0  0
   -0.9091  -10.2544   31.0550 H   0  0  0  0  0  0  0  0  0  0  0  0
    0.3523   -8.4093   30.0299 H   0  0  0  0  0  0  0  0  0  0  0  0
   -2.0700   -6.2415   32.5216 H   0  0  0  0  0  0  0  0  0  0  0  0
   -8.3876  -16.2822   27.3048 H   0  0  0  0  0  0  0  0  0  0  0  0
  -10.1193  -20.1398   29.1811 H   0  0  0  0  0  0  0  0  0  0  0  0
  -11.7780  -20.9375   29.3032 H   0  0  0  0  0  0  0  0  0  0  0  0
  -10.6715  -21.5091   30.2554 H   0  0  0  0  0  0  0  0  0  0  0  0
  -11.4194  -23.1440   28.2172 H   0  0  0  0  0  0  0  0  0  0  0  0
   -9.6775  -22.9735   28.0883 H   0  0  0  0  0  0  0  0  0  0  0  0
  -11.2636  -21.3137   26.2709 H   0  0  0  0  0  0  0  0  0  0  0  0
  -11.9685  -21.0946   27.5109 H   0  0  0  0  0  0  0  0  0  0  0  0
  1  2  1  0
  2  3  1  0
  2  4  1  0
  4  5  1  0
  5  6  1  0
  6  7  2  0
  6  8  1  0
  8  9  2  0
  9 10  1  0
 10 11  1  0
 11 12  2  0
 12 13  1  0
 13 14  2  0
 14 15  1  0
 14 16  1  0
 16 17  2  0
  2 18  1  0
 18 19  1  0
 19 20  2  0
 19 21  1  0
 21 22  1  0
 22 23  1  0
 23 24  1  0
 17  8  1  0
 24 21  1  0
 17 11  1  0
  1 25  1  0
  1 26  1  0
  1 27  1  0
  3 28  1  0
  3 29  1  0
  3 30  1  0
  4 31  1  0
  4 32  1  0
  5 33  1  0
  9 34  1  0
 10 35  1  0
 12 36  1  0
 13 37  1  0
 16 38  1  0
 18 39  1  0
 21 40  1  0
 22 41  1  0
 22 42  1  0
 23 43  1  0
 23 44  1  0
 24 45  1  0
 24 46  1  0
M  END
>  <Energy>  (363) 
1667.0770102132215

>  <compound_id>  (363) 
46271

>  <target_id>  (363) 
1

>  <reference_id>  (363) 
40

>  <inspiration_ids>  (363) 
[40, 3]

>  <energy_score>  (363) 
1617.0617306939073

>  <distance_score>  (363) 
6.139729232199916

>  <path>  (363) 
/opt/xchem-fragalysis-2/maxwin/BulkDock/SCRATCH/511025/C46271-P40/C46271-P40.minimised.mol

>  <scratch_subdir>  (363) 
/opt/xchem-fragalysis-2/maxwin/BulkDock/SCRATCH/511025/C46271-P40

>  <fragmenstein_runtime>  (363) 
39.77337670326233

>  <fragmenstein_outcome>  (363) 
too moved

>  <fragmenstein_mode>  (363) 
expansion

>  <fragmenstein_error>  (363) 


$$$$
C46271-P3
     RDKit          3D

 46 48  0  0  0  0  0  0  0  0999 V2000
   -7.4202  -14.4543   34.5930 C   0  0  0  0  0  0  0  0  0  0  0  0
   -8.2798  -13.7217   33.4834 C   0  0  0  0  0  0  0  0  0  0  0  0
   -9.5183  -13.0829   34.1085 C   0  0  0  0  0  0  0  0  0  0  0  0
   -6.9703  -12.6381   33.4279 C   0  0  0  0  0  0  0  0  0  0  0  0
   -6.3272  -11.4726   32.7549 N   0  0  0  0  0  0  0  0  0  0  0  0
   -4.9340  -10.4296   33.2614 C   0  0  0  0  0  0  0  0  0  0  0  0
   -4.3751  -10.5008   34.3007 O   0  0  0  0  0  0  0  0  0  0  0  0
   -4.1332   -9.2597   32.2539 C   0  0  0  0  0  0  0  0  0  0  0  0
   -2.9786   -9.9385   31.4906 C   0  0  0  0  0  0  0  0  0  0  0  0
   -1.8991   -8.7545   30.9099 N   0  0  0  0  0  0  0  0  0  0  0  0
   -2.5867   -7.2408   31.0454 C   0  0  0  0  0  0  0  0  0  0  0  0
   -2.5353   -6.0779   30.2079 C   0  0  0  0  0  0  0  0  0  0  0  0
   -3.2741   -4.9189   30.3371 C   0  0  0  0  0  0  0  0  0  0  0  0
   -4.3527   -4.9408   31.1596 C   0  0  0  0  0  0  0  0  0  0  0  0
   -5.5597   -3.7493   30.8627 Cl  0  0  0  0  0  0  0  0  0  0  0  0
   -4.6317   -6.0831   31.9383 C   0  0  0  0  0  0  0  0  0  0  0  0
   -3.7435   -7.4140   32.1062 C   0  0  0  0  0  0  0  0  0  0  0  0
   -8.7343  -15.1413   32.6976 N   0  0  0  0  0  0  0  0  0  0  0  0
  -10.1326  -16.0211   32.7917 C   0  0  0  0  0  0  0  0  0  0  0  0
  -11.1746  -15.7743   33.3938 O   0  0  0  0  0  0  0  0  0  0  0  0
  -10.1477  -17.5709   32.0674 C   0  0  0  0  0  0  0  0  0  0  0  0
  -10.7121  -18.5571   30.9280 C   0  0  0  0  0  0  0  0  0  0  0  0
  -10.7997  -19.6740   31.9743 C   0  0  0  0  0  0  0  0  0  0  0  0
  -11.2608  -18.5420   32.8965 C   0  0  0  0  0  0  0  0  0  0  0  0
   -7.3196  -15.5106   34.4533 H   0  0  0  0  0  0  0  0  0  0  0  0
   -6.3472  -14.3458   34.4744 H   0  0  0  0  0  0  0  0  0  0  0  0
   -7.6385  -14.0935   35.5966 H   0  0  0  0  0  0  0  0  0  0  0  0
  -10.2139  -12.7501   33.3344 H   0  0  0  0  0  0  0  0  0  0  0  0
  -10.0662  -13.7789   34.7500 H   0  0  0  0  0  0  0  0  0  0  0  0
   -9.2540  -12.2253   34.7336 H   0  0  0  0  0  0  0  0  0  0  0  0
   -6.7341  -12.4394   34.4624 H   0  0  0  0  0  0  0  0  0  0  0  0
   -6.4126  -13.3612   32.8269 H   0  0  0  0  0  0  0  0  0  0  0  0
   -6.6614  -11.1758   31.9128 H   0  0  0  0  0  0  0  0  0  0  0  0
   -2.5667  -10.9367   31.4286 H   0  0  0  0  0  0  0  0  0  0  0  0
   -1.0542   -9.0818   30.4642 H   0  0  0  0  0  0  0  0  0  0  0  0
   -2.0122   -6.0815   29.2788 H   0  0  0  0  0  0  0  0  0  0  0  0
   -3.1256   -4.1011   29.6364 H   0  0  0  0  0  0  0  0  0  0  0  0
   -5.6990   -6.1080   32.1676 H   0  0  0  0  0  0  0  0  0  0  0  0
   -8.0272  -15.6756   32.1796 H   0  0  0  0  0  0  0  0  0  0  0  0
   -9.0950  -17.8480   32.0570 H   0  0  0  0  0  0  0  0  0  0  0  0
  -11.7033  -18.5514   30.4915 H   0  0  0  0  0  0  0  0  0  0  0  0
  -10.1005  -18.7396   30.0546 H   0  0  0  0  0  0  0  0  0  0  0  0
  -11.5324  -20.4582   31.7744 H   0  0  0  0  0  0  0  0  0  0  0  0
   -9.8565  -20.1421   32.2704 H   0  0  0  0  0  0  0  0  0  0  0  0
  -12.3092  -18.2448   32.7654 H   0  0  0  0  0  0  0  0  0  0  0  0
  -11.1710  -18.7641   33.9582 H   0  0  0  0  0  0  0  0  0  0  0  0
  1  2  1  0
  2  3  1  0
  2  4  1  0
  4  5  1  0
  5  6  1  0
  6  7  2  0
  6  8  1  0
  8  9  2  0
  9 10  1  0
 10 11  1  0
 11 12  2  0
 12 13  1  0
 13 14  2  0
 14 15  1  0
 14 16  1  0
 16 17  2  0
  2 18  1  0
 18 19  1  0
 19 20  2  0
 19 21  1  0
 21 22  1  0
 22 23  1  0
 23 24  1  0
 17  8  1  0
 24 21  1  0
 17 11  1  0
  1 25  1  0
  1 26  1  0
  1 27  1  0
  3 28  1  0
  3 29  1  0
  3 30  1  0
  4 31  1  0
  4 32  1  0
  5 33  1  0
  9 34  1  0
 10 35  1  0
 12 36  1  0
 13 37  1  0
 16 38  1  0
 18 39  1  0
 21 40  1  0
 22 41  1  0
 22 42  1  0
 23 43  1  0
 23 44  1  0
 24 45  1  0
 24 46  1  0
M  END
>  <Energy>  (364) 
473.76351853693188

>  <compound_id>  (364) 
46271

>  <target_id>  (364) 
1

>  <reference_id>  (364) 
3

>  <inspiration_ids>  (364) 
[40, 3]

>  <energy_score>  (364) 
423.7482390175949

>  <distance_score>  (364) 
7.124828226828809

>  <path>  (364) 
/opt/xchem-fragalysis-2/maxwin/BulkDock/SCRATCH/511025/C46271-P3/C46271-P3.minimised.mol

>  <scratch_subdir>  (364) 
/opt/xchem-fragalysis-2/maxwin/BulkDock/SCRATCH/511025/C46271-P3

>  <fragmenstein_runtime>  (364) 
24.837809801101685

>  <fragmenstein_outcome>  (364) 
too moved

>  <fragmenstein_mode>  (364) 
expansion

>  <fragmenstein_error>  (364) 


$$$$
C46279-P40
     RDKit          3D

 40 43  0  0  0  0  0  0  0  0999 V2000
    2.1167   -6.0643   33.6392 O   0  0  0  0  0  0  0  0  0  0  0  0
    0.8236   -5.7086   33.1623 C   0  0  0  0  0  0  0  0  0  0  0  0
   -0.2361   -6.5445   33.7846 C   0  0  0  0  0  0  0  0  0  0  0  0
   -0.4920   -6.6782   35.1318 C   0  0  0  0  0  0  0  0  0  0  0  0
   -1.5611   -7.5212   35.2920 N   0  0  0  0  0  0  0  0  0  0  0  0
   -2.0434   -7.9376   34.0763 C   0  0  0  0  0  0  0  0  0  0  0  0
   -3.2005   -8.7830   33.7272 C   0  0  0  0  0  0  0  0  0  0  0  0
   -3.7427   -8.7761   32.3007 C   0  0  0  0  0  0  0  0  0  0  0  0
   -5.3072   -9.7781   31.8316 C   0  0  0  0  0  0  0  0  0  0  0  0
   -5.9526  -10.9992   33.1184 C   0  0  0  0  0  0  0  0  0  0  0  0
   -6.7738  -12.0807   32.6779 C   0  0  0  0  0  0  0  0  0  0  0  0
   -6.3575  -12.4198   31.4761 N   0  0  0  0  0  0  0  0  0  0  0  0
   -6.3787  -13.8561   30.3900 C   0  0  0  0  0  0  0  0  0  0  0  0
   -5.5512  -15.1589   30.6682 C   0  0  0  0  0  0  0  0  0  0  0  0
   -5.6740  -16.1271   29.3348 C   0  0  0  0  0  0  0  0  0  0  0  0
   -6.7127  -15.6186   28.2188 C   0  0  0  0  0  0  0  0  0  0  0  0
   -7.1490  -14.1678   28.7051 C   0  0  0  0  0  0  0  0  0  0  0  0
   -5.7870  -11.0379   30.8512 N   0  0  0  0  0  0  0  0  0  0  0  0
   -2.5649   -8.5477   31.6004 C   0  0  0  0  0  0  0  0  0  0  0  0
   -1.4732   -7.6588   31.8111 C   0  0  0  0  0  0  0  0  0  0  0  0
   -1.2258   -7.3284   33.1271 C   0  0  0  0  0  0  0  0  0  0  0  0
    2.0740   -5.9727   34.6068 H   0  0  0  0  0  0  0  0  0  0  0  0
    0.8329   -5.8199   32.0740 H   0  0  0  0  0  0  0  0  0  0  0  0
    0.6533   -4.6498   33.3849 H   0  0  0  0  0  0  0  0  0  0  0  0
   -0.0223   -6.2377   36.0004 H   0  0  0  0  0  0  0  0  0  0  0  0
   -1.9957   -7.7368   36.1786 H   0  0  0  0  0  0  0  0  0  0  0  0
   -3.8182   -9.1237   34.5591 H   0  0  0  0  0  0  0  0  0  0  0  0
   -5.8195  -10.6011   34.1176 H   0  0  0  0  0  0  0  0  0  0  0  0
   -7.5131  -12.6582   33.1699 H   0  0  0  0  0  0  0  0  0  0  0  0
   -5.6046  -13.3719   29.8483 H   0  0  0  0  0  0  0  0  0  0  0  0
   -5.8438  -15.6236   31.5871 H   0  0  0  0  0  0  0  0  0  0  0  0
   -4.4809  -15.0347   30.8446 H   0  0  0  0  0  0  0  0  0  0  0  0
   -5.9173  -17.1085   29.6478 H   0  0  0  0  0  0  0  0  0  0  0  0
   -4.6787  -16.3358   28.9465 H   0  0  0  0  0  0  0  0  0  0  0  0
   -7.5875  -16.2808   28.1285 H   0  0  0  0  0  0  0  0  0  0  0  0
   -6.5258  -15.7412   27.1655 H   0  0  0  0  0  0  0  0  0  0  0  0
   -6.9942  -13.4509   27.9000 H   0  0  0  0  0  0  0  0  0  0  0  0
   -8.2383  -14.1672   28.7689 H   0  0  0  0  0  0  0  0  0  0  0  0
   -2.0538   -9.5066   31.3718 H   0  0  0  0  0  0  0  0  0  0  0  0
   -0.7110   -7.5132   31.0539 H   0  0  0  0  0  0  0  0  0  0  0  0
  1  2  1  0
  2  3  1  0
  3  4  2  0
  4  5  1  0
  5  6  1  0
  6  7  2  0
  7  8  1  0
  8  9  1  0
  9 10  1  0
 10 11  2  0
 11 12  1  0
 12 13  1  0
 13 14  1  0
 14 15  1  0
 15 16  1  0
 16 17  1  0
 12 18  1  0
  8 19  2  0
 19 20  1  0
 20 21  2  0
 21  3  1  0
 21  6  1  0
 18  9  2  0
 17 13  1  0
  1 22  1  0
  2 23  1  0
  2 24  1  0
  4 25  1  0
  5 26  1  0
  7 27  1  0
 10 28  1  0
 11 29  1  0
 13 30  1  0
 14 31  1  0
 14 32  1  0
 15 33  1  0
 15 34  1  0
 16 35  1  0
 16 36  1  0
 17 37  1  0
 17 38  1  0
 19 39  1  0
 20 40  1  0
M  END
>  <Energy>  (365) 
460.83495727941033

>  <compound_id>  (365) 
46279

>  <target_id>  (365) 
1

>  <reference_id>  (365) 
40

>  <inspiration_ids>  (365) 
[40, 3]

>  <energy_score>  (365) 
395.55424343332396

>  <distance_score>  (365) 
7.400527202109221

>  <path>  (365) 
/opt/xchem-fragalysis-2/maxwin/BulkDock/SCRATCH/511025/C46279-P40/C46279-P40.minimised.mol

>  <scratch_subdir>  (365) 
/opt/xchem-fragalysis-2/maxwin/BulkDock/SCRATCH/511025/C46279-P40

>  <fragmenstein_runtime>  (365) 
23.66554880142212

>  <fragmenstein_outcome>  (365) 
too moved

>  <fragmenstein_mode>  (365) 
expansion

>  <fragmenstein_error>  (365) 


$$$$
C46279-P3
     RDKit          3D

 40 43  0  0  0  0  0  0  0  0999 V2000
   -2.6585   -5.8810   27.8119 O   0  0  0  0  0  0  0  0  0  0  0  0
   -2.4145   -5.2441   29.0541 C   0  0  0  0  0  0  0  0  0  0  0  0
   -2.7373   -6.0373   30.3143 C   0  0  0  0  0  0  0  0  0  0  0  0
   -3.6906   -5.3850   31.0951 C   0  0  0  0  0  0  0  0  0  0  0  0
   -4.2625   -6.1924   32.0359 N   0  0  0  0  0  0  0  0  0  0  0  0
   -3.6833   -7.4948   32.1350 C   0  0  0  0  0  0  0  0  0  0  0  0
   -4.3962   -9.0334   32.6953 C   0  0  0  0  0  0  0  0  0  0  0  0
   -4.3374  -10.5966   32.3266 C   0  0  0  0  0  0  0  0  0  0  0  0
   -5.8738  -11.8072   32.2898 C   0  0  0  0  0  0  0  0  0  0  0  0
   -7.0012  -11.9419   33.2640 C   0  0  0  0  0  0  0  0  0  0  0  0
   -6.9399  -13.1849   33.8092 C   0  0  0  0  0  0  0  0  0  0  0  0
   -7.1820  -13.7696   32.5917 N   0  0  0  0  0  0  0  0  0  0  0  0
   -8.4343  -14.5872   32.7114 C   0  0  0  0  0  0  0  0  0  0  0  0
   -9.6059  -13.7406   33.3611 C   0  0  0  0  0  0  0  0  0  0  0  0
  -10.7871  -14.5781   33.8758 C   0  0  0  0  0  0  0  0  0  0  0  0
  -10.6558  -15.9575   33.2459 C   0  0  0  0  0  0  0  0  0  0  0  0
   -9.2202  -16.0270   32.4911 C   0  0  0  0  0  0  0  0  0  0  0  0
   -6.2262  -13.0926   31.6313 N   0  0  0  0  0  0  0  0  0  0  0  0
   -2.8370  -10.5239   31.4828 C   0  0  0  0  0  0  0  0  0  0  0  0
   -1.8115   -9.1148   30.8583 C   0  0  0  0  0  0  0  0  0  0  0  0
   -2.4974   -7.4320   30.9821 C   0  0  0  0  0  0  0  0  0  0  0  0
   -1.9799   -5.4872   27.2228 H   0  0  0  0  0  0  0  0  0  0  0  0
   -3.0572   -4.3535   29.0189 H   0  0  0  0  0  0  0  0  0  0  0  0
   -1.4205   -4.8056   29.0510 H   0  0  0  0  0  0  0  0  0  0  0  0
   -4.1139   -4.3945   30.9881 H   0  0  0  0  0  0  0  0  0  0  0  0
   -5.0374   -5.9494   32.6350 H   0  0  0  0  0  0  0  0  0  0  0  0
   -4.2047   -9.0546   33.7969 H   0  0  0  0  0  0  0  0  0  0  0  0
   -7.5717  -11.2619   33.8503 H   0  0  0  0  0  0  0  0  0  0  0  0
   -7.2997  -13.5808   34.7504 H   0  0  0  0  0  0  0  0  0  0  0  0
   -7.8559  -15.0922   33.4949 H   0  0  0  0  0  0  0  0  0  0  0  0
   -9.9549  -13.0068   32.6342 H   0  0  0  0  0  0  0  0  0  0  0  0
   -9.2658  -13.1849   34.2326 H   0  0  0  0  0  0  0  0  0  0  0  0
  -10.7637  -14.6334   34.9701 H   0  0  0  0  0  0  0  0  0  0  0  0
  -11.7507  -14.1023   33.6603 H   0  0  0  0  0  0  0  0  0  0  0  0
  -10.9207  -16.7532   33.9440 H   0  0  0  0  0  0  0  0  0  0  0  0
  -11.4589  -16.1509   32.5920 H   0  0  0  0  0  0  0  0  0  0  0  0
   -8.4903  -16.7795   32.7978 H   0  0  0  0  0  0  0  0  0  0  0  0
   -9.4786  -16.5430   31.5999 H   0  0  0  0  0  0  0  0  0  0  0  0
   -3.2745   -9.5648   31.4272 H   0  0  0  0  0  0  0  0  0  0  0  0
   -0.9616   -9.3900   30.2323 H   0  0  0  0  0  0  0  0  0  0  0  0
  1  2  1  0
  2  3  1  0
  3  4  2  0
  4  5  1  0
  5  6  1  0
  6  7  2  0
  7  8  1  0
  8  9  1  0
  9 10  1  0
 10 11  2  0
 11 12  1  0
 12 13  1  0
 13 14  1  0
 14 15  1  0
 15 16  1  0
 16 17  1  0
 12 18  1  0
  8 19  2  0
 19 20  1  0
 20 21  2  0
 21  3  1  0
 21  6  1  0
 18  9  2  0
 17 13  1  0
  1 22  1  0
  2 23  1  0
  2 24  1  0
  4 25  1  0
  5 26  1  0
  7 27  1  0
 10 28  1  0
 11 29  1  0
 13 30  1  0
 14 31  1  0
 14 32  1  0
 15 33  1  0
 15 34  1  0
 16 35  1  0
 16 36  1  0
 17 37  1  0
 17 38  1  0
 19 39  1  0
 20 40  1  0
M  END
>  <Energy>  (366) 
707.01177396432615

>  <compound_id>  (366) 
46279

>  <target_id>  (366) 
1

>  <reference_id>  (366) 
3

>  <inspiration_ids>  (366) 
[40, 3]

>  <energy_score>  (366) 
641.7310601182332

>  <distance_score>  (366) 
6.983734392819559

>  <path>  (366) 
/opt/xchem-fragalysis-2/maxwin/BulkDock/SCRATCH/511025/C46279-P3/C46279-P3.minimised.mol

>  <scratch_subdir>  (366) 
/opt/xchem-fragalysis-2/maxwin/BulkDock/SCRATCH/511025/C46279-P3

>  <fragmenstein_runtime>  (366) 
17.162636280059814

>  <fragmenstein_outcome>  (366) 
too moved

>  <fragmenstein_mode>  (366) 
expansion

>  <fragmenstein_error>  (366) 


$$$$
C46285-P40
     RDKit          3D

 38 40  0  0  0  0  0  0  0  0999 V2000
   -6.3187  -14.3376   30.6253 C   0  0  0  0  0  0  0  0  0  0  0  0
   -6.5073  -14.1385   29.1248 N   0  0  0  0  0  0  0  0  0  0  0  0
   -5.1483  -12.4383   29.1748 C   0  0  0  0  0  0  0  0  0  0  0  0
   -3.4084  -11.4263   29.8361 C   0  0  0  0  0  0  0  0  0  0  0  0
   -3.2161   -9.9138   31.0395 C   0  0  0  0  0  0  0  0  0  0  0  0
   -2.1400   -9.0925   31.7772 C   0  0  0  0  0  0  0  0  0  0  0  0
   -0.9959   -8.9747   31.0512 C   0  0  0  0  0  0  0  0  0  0  0  0
   -0.1031   -7.9320   31.1784 N   0  0  0  0  0  0  0  0  0  0  0  0
    0.2596   -7.5661   29.9297 C   0  0  0  0  0  0  0  0  0  0  0  0
   -0.2430   -8.5468   29.1048 C   0  0  0  0  0  0  0  0  0  0  0  0
   -0.8461   -9.6922   29.8056 C   0  0  0  0  0  0  0  0  0  0  0  0
   -1.9567  -11.0573   29.4349 C   0  0  0  0  0  0  0  0  0  0  0  0
   -7.6877  -15.7899   28.3189 C   0  0  0  0  0  0  0  0  0  0  0  0
   -8.8477  -17.7222   28.3346 C   0  0  0  0  0  0  0  0  0  0  0  0
   -9.0995  -19.7441   28.2951 C   0  0  0  0  0  0  0  0  0  0  0  0
  -10.5676  -20.8623   29.1787 C   0  0  0  0  0  0  0  0  0  0  0  0
  -11.9728  -20.3514   29.1219 C   0  0  0  0  0  0  0  0  0  0  0  0
  -11.3286  -18.1121   29.1040 S   0  0  0  0  0  0  0  0  0  0  0  0
   -6.1786  -13.3968   31.1216 H   0  0  0  0  0  0  0  0  0  0  0  0
   -5.5277  -15.0544   30.8527 H   0  0  0  0  0  0  0  0  0  0  0  0
   -7.2224  -14.5202   31.1937 H   0  0  0  0  0  0  0  0  0  0  0  0
   -5.7078  -11.5420   29.1633 H   0  0  0  0  0  0  0  0  0  0  0  0
   -4.8201  -12.0830   28.1232 H   0  0  0  0  0  0  0  0  0  0  0  0
   -4.0800   -9.2136   31.3681 H   0  0  0  0  0  0  0  0  0  0  0  0
   -2.4138   -8.3906   32.5534 H   0  0  0  0  0  0  0  0  0  0  0  0
   -0.0376   -7.3430   31.9989 H   0  0  0  0  0  0  0  0  0  0  0  0
    0.7145   -6.6047   29.7256 H   0  0  0  0  0  0  0  0  0  0  0  0
   -0.3335   -8.2344   28.0985 H   0  0  0  0  0  0  0  0  0  0  0  0
   -1.3415  -11.2801   30.3298 H   0  0  0  0  0  0  0  0  0  0  0  0
   -8.2062  -15.2774   27.4880 H   0  0  0  0  0  0  0  0  0  0  0  0
   -6.8836  -16.4595   28.4228 H   0  0  0  0  0  0  0  0  0  0  0  0
   -9.1379  -17.5313   27.2848 H   0  0  0  0  0  0  0  0  0  0  0  0
   -8.1787  -20.3670   28.0344 H   0  0  0  0  0  0  0  0  0  0  0  0
   -9.5878  -20.4181   27.5076 H   0  0  0  0  0  0  0  0  0  0  0  0
  -10.5590  -21.8368   28.6485 H   0  0  0  0  0  0  0  0  0  0  0  0
  -10.5105  -21.0823   30.2401 H   0  0  0  0  0  0  0  0  0  0  0  0
  -12.6041  -20.6549   29.9556 H   0  0  0  0  0  0  0  0  0  0  0  0
  -12.4341  -20.7395   28.2181 H   0  0  0  0  0  0  0  0  0  0  0  0
  1  2  1  0
  2  3  1  0
  3  4  1  0
  4  5  2  0
  5  6  1  0
  6  7  2  0
  7  8  1  0
  8  9  1  0
  9 10  2  0
 10 11  1  0
 11 12  2  0
  2 13  1  0
 13 14  1  0
 14 15  1  0
 15 16  1  0
 16 17  1  0
 17 18  1  0
 12  4  1  0
 18 14  1  0
 11  7  1  0
  1 19  1  0
  1 20  1  0
  1 21  1  0
  3 22  1  0
  3 23  1  0
  5 24  1  0
  6 25  1  0
  8 26  1  0
  9 27  1  0
 10 28  1  0
 12 29  1  0
 13 30  1  0
 13 31  1  0
 14 32  1  0
 15 33  1  0
 15 34  1  0
 16 35  1  0
 16 36  1  0
 17 37  1  0
 17 38  1  0
M  END
>  <Energy>  (367) 
1565.1768797697812

>  <compound_id>  (367) 
46285

>  <target_id>  (367) 
1

>  <reference_id>  (367) 
40

>  <inspiration_ids>  (367) 
[40, 3]

>  <energy_score>  (367) 
1489.37159569824

>  <distance_score>  (367) 
5.811251144870815

>  <path>  (367) 
/opt/xchem-fragalysis-2/maxwin/BulkDock/SCRATCH/511025/C46285-P40/C46285-P40.minimised.mol

>  <scratch_subdir>  (367) 
/opt/xchem-fragalysis-2/maxwin/BulkDock/SCRATCH/511025/C46285-P40

>  <fragmenstein_runtime>  (367) 
8.354323148727417

>  <fragmenstein_outcome>  (367) 
too moved

>  <fragmenstein_mode>  (367) 
expansion

>  <fragmenstein_error>  (367) 


$$$$
C46285-P3
     RDKit          3D

 38 40  0  0  0  0  0  0  0  0999 V2000
   -4.4605  -10.7473   35.3763 C   0  0  0  0  0  0  0  0  0  0  0  0
   -4.9525  -10.5385   33.9567 N   0  0  0  0  0  0  0  0  0  0  0  0
   -4.4000   -9.1138   32.7529 C   0  0  0  0  0  0  0  0  0  0  0  0
   -3.8995   -7.2473   32.2081 C   0  0  0  0  0  0  0  0  0  0  0  0
   -4.8945   -6.0847   32.0021 C   0  0  0  0  0  0  0  0  0  0  0  0
   -4.7230   -4.8940   31.2787 C   0  0  0  0  0  0  0  0  0  0  0  0
   -4.0662   -5.1641   30.1013 C   0  0  0  0  0  0  0  0  0  0  0  0
   -4.3496   -5.1846   28.7617 N   0  0  0  0  0  0  0  0  0  0  0  0
   -3.2006   -4.7396   28.1734 C   0  0  0  0  0  0  0  0  0  0  0  0
   -2.2233   -5.0652   29.0835 C   0  0  0  0  0  0  0  0  0  0  0  0
   -2.8438   -5.7583   30.1585 C   0  0  0  0  0  0  0  0  0  0  0  0
   -2.7098   -6.7588   31.2192 C   0  0  0  0  0  0  0  0  0  0  0  0
   -6.4748  -11.5941   34.0123 C   0  0  0  0  0  0  0  0  0  0  0  0
   -6.9027  -13.1677   34.4679 C   0  0  0  0  0  0  0  0  0  0  0  0
   -7.2007  -14.1383   33.2751 C   0  0  0  0  0  0  0  0  0  0  0  0
   -6.7349  -15.5878   33.5224 C   0  0  0  0  0  0  0  0  0  0  0  0
   -6.0992  -15.7643   34.8875 C   0  0  0  0  0  0  0  0  0  0  0  0
   -6.0683  -14.1508   35.7453 S   0  0  0  0  0  0  0  0  0  0  0  0
   -4.8149  -11.7261   35.6840 H   0  0  0  0  0  0  0  0  0  0  0  0
   -3.4022  -10.6061   35.5329 H   0  0  0  0  0  0  0  0  0  0  0  0
   -4.9276  -10.3442   36.2733 H   0  0  0  0  0  0  0  0  0  0  0  0
   -3.9038   -9.7972   32.0520 H   0  0  0  0  0  0  0  0  0  0  0  0
   -3.9887   -8.7587   33.6956 H   0  0  0  0  0  0  0  0  0  0  0  0
   -5.9378   -6.0475   32.3297 H   0  0  0  0  0  0  0  0  0  0  0  0
   -4.0447   -4.3039   31.9197 H   0  0  0  0  0  0  0  0  0  0  0  0
   -5.2721   -5.1229   28.3533 H   0  0  0  0  0  0  0  0  0  0  0  0
   -3.1689   -4.2550   27.2056 H   0  0  0  0  0  0  0  0  0  0  0  0
   -1.2018   -4.8575   28.8374 H   0  0  0  0  0  0  0  0  0  0  0  0
   -1.7878   -7.2934   31.0656 H   0  0  0  0  0  0  0  0  0  0  0  0
   -7.2489  -10.9973   34.5072 H   0  0  0  0  0  0  0  0  0  0  0  0
   -6.7038  -11.7665   32.9428 H   0  0  0  0  0  0  0  0  0  0  0  0
   -7.8866  -12.9988   34.9295 H   0  0  0  0  0  0  0  0  0  0  0  0
   -6.7739  -13.7700   32.3362 H   0  0  0  0  0  0  0  0  0  0  0  0
   -8.2830  -14.1292   33.0942 H   0  0  0  0  0  0  0  0  0  0  0  0
   -6.0431  -15.9637   32.7682 H   0  0  0  0  0  0  0  0  0  0  0  0
   -7.5259  -16.2978   33.3107 H   0  0  0  0  0  0  0  0  0  0  0  0
   -5.0895  -16.1743   34.8092 H   0  0  0  0  0  0  0  0  0  0  0  0
   -6.5776  -16.5113   35.5113 H   0  0  0  0  0  0  0  0  0  0  0  0
  1  2  1  0
  2  3  1  0
  3  4  1  0
  4  5  2  0
  5  6  1  0
  6  7  2  0
  7  8  1  0
  8  9  1  0
  9 10  2  0
 10 11  1  0
 11 12  2  0
  2 13  1  0
 13 14  1  0
 14 15  1  0
 15 16  1  0
 16 17  1  0
 17 18  1  0
 12  4  1  0
 18 14  1  0
 11  7  1  0
  1 19  1  0
  1 20  1  0
  1 21  1  0
  3 22  1  0
  3 23  1  0
  5 24  1  0
  6 25  1  0
  8 26  1  0
  9 27  1  0
 10 28  1  0
 12 29  1  0
 13 30  1  0
 13 31  1  0
 14 32  1  0
 15 33  1  0
 15 34  1  0
 16 35  1  0
 16 36  1  0
 17 37  1  0
 17 38  1  0
M  END
>  <Energy>  (368) 
507.62754716224077

>  <compound_id>  (368) 
46285

>  <target_id>  (368) 
1

>  <reference_id>  (368) 
3

>  <inspiration_ids>  (368) 
[40, 3]

>  <energy_score>  (368) 
431.82226309068926

>  <distance_score>  (368) 
7.799747193066514

>  <path>  (368) 
/opt/xchem-fragalysis-2/maxwin/BulkDock/SCRATCH/511025/C46285-P3/C46285-P3.minimised.mol

>  <scratch_subdir>  (368) 
/opt/xchem-fragalysis-2/maxwin/BulkDock/SCRATCH/511025/C46285-P3

>  <fragmenstein_runtime>  (368) 
8.526301860809326

>  <fragmenstein_outcome>  (368) 
too moved

>  <fragmenstein_mode>  (368) 
expansion

>  <fragmenstein_error>  (368) 


$$$$
C46286-P40
     RDKit          3D

 44 46  0  0  0  0  0  0  0  0999 V2000
   -1.5617   -8.6586   31.9605 C   0  0  0  0  0  0  0  0  0  0  0  0
   -2.9039   -8.7536   32.4545 O   0  0  0  0  0  0  0  0  0  0  0  0
   -3.0474   -8.7857   33.8450 C   0  0  0  0  0  0  0  0  0  0  0  0
   -4.2079   -9.4520   34.5669 C   0  0  0  0  0  0  0  0  0  0  0  0
   -5.6757  -10.6190   33.9752 C   0  0  0  0  0  0  0  0  0  0  0  0
   -6.2123  -11.9505   32.6492 N   0  0  0  0  0  0  0  0  0  0  0  0
   -7.6359  -11.9459   32.9818 C   0  0  0  0  0  0  0  0  0  0  0  0
   -6.6418  -13.6335   31.9079 C   0  0  0  0  0  0  0  0  0  0  0  0
   -8.1022  -15.0581   32.2048 C   0  0  0  0  0  0  0  0  0  0  0  0
   -7.7339  -17.0345   32.6941 C   0  0  0  0  0  0  0  0  0  0  0  0
   -8.9030  -17.6093   33.8755 C   0  0  0  0  0  0  0  0  0  0  0  0
   -9.6842  -16.3709   34.2222 C   0  0  0  0  0  0  0  0  0  0  0  0
   -9.5480  -15.1489   33.1569 C   0  0  0  0  0  0  0  0  0  0  0  0
   -3.9208   -9.5948   35.9344 C   0  0  0  0  0  0  0  0  0  0  0  0
   -2.6392   -9.3467   36.5187 C   0  0  0  0  0  0  0  0  0  0  0  0
   -1.8069   -8.4094   35.8780 C   0  0  0  0  0  0  0  0  0  0  0  0
   -0.6768   -7.7439   36.2952 N   0  0  0  0  0  0  0  0  0  0  0  0
   -0.2707   -6.8388   35.3498 C   0  0  0  0  0  0  0  0  0  0  0  0
   -1.1240   -6.9624   34.2823 C   0  0  0  0  0  0  0  0  0  0  0  0
   -2.0697   -8.0036   34.5838 C   0  0  0  0  0  0  0  0  0  0  0  0
   -0.7605   -8.7557   32.6914 H   0  0  0  0  0  0  0  0  0  0  0  0
   -1.3793   -9.4803   31.2682 H   0  0  0  0  0  0  0  0  0  0  0  0
   -1.4521   -7.7174   31.4137 H   0  0  0  0  0  0  0  0  0  0  0  0
   -5.3605  -10.9640   34.9717 H   0  0  0  0  0  0  0  0  0  0  0  0
   -6.4968  -10.6618   34.6553 H   0  0  0  0  0  0  0  0  0  0  0  0
   -8.0902  -12.9050   33.0498 H   0  0  0  0  0  0  0  0  0  0  0  0
   -8.2353  -11.4144   32.2554 H   0  0  0  0  0  0  0  0  0  0  0  0
   -7.8385  -11.6345   33.9882 H   0  0  0  0  0  0  0  0  0  0  0  0
   -6.6265  -13.4934   30.8359 H   0  0  0  0  0  0  0  0  0  0  0  0
   -5.7983  -14.3373   31.8540 H   0  0  0  0  0  0  0  0  0  0  0  0
   -8.4701  -14.7239   31.2638 H   0  0  0  0  0  0  0  0  0  0  0  0
   -7.5148  -17.8606   31.9473 H   0  0  0  0  0  0  0  0  0  0  0  0
   -6.6786  -17.1990   32.7509 H   0  0  0  0  0  0  0  0  0  0  0  0
   -9.5822  -18.4115   33.5682 H   0  0  0  0  0  0  0  0  0  0  0  0
   -8.5540  -18.0931   34.7844 H   0  0  0  0  0  0  0  0  0  0  0  0
   -9.1201  -16.1920   35.1115 H   0  0  0  0  0  0  0  0  0  0  0  0
  -10.7094  -16.5443   34.5627 H   0  0  0  0  0  0  0  0  0  0  0  0
  -10.4422  -15.3282   32.6040 H   0  0  0  0  0  0  0  0  0  0  0  0
   -9.7361  -14.1611   33.4725 H   0  0  0  0  0  0  0  0  0  0  0  0
   -4.7094   -9.9222   36.6008 H   0  0  0  0  0  0  0  0  0  0  0  0
   -2.4321   -9.6536   37.5390 H   0  0  0  0  0  0  0  0  0  0  0  0
   -0.2711   -7.8487   37.2128 H   0  0  0  0  0  0  0  0  0  0  0  0
    0.5675   -6.1813   35.5314 H   0  0  0  0  0  0  0  0  0  0  0  0
   -1.0683   -6.3819   33.3730 H   0  0  0  0  0  0  0  0  0  0  0  0
  1  2  1  0
  2  3  1  0
  3  4  2  0
  4  5  1  0
  5  6  1  0
  6  7  1  0
  6  8  1  0
  8  9  1  0
  9 10  1  0
 10 11  1  0
 11 12  1  0
 12 13  1  0
  4 14  1  0
 14 15  2  0
 15 16  1  0
 16 17  1  0
 17 18  1  0
 18 19  2  0
 19 20  1  0
 20  3  1  0
 13  9  1  0
 20 16  2  0
  1 21  1  0
  1 22  1  0
  1 23  1  0
  5 24  1  0
  5 25  1  0
  7 26  1  0
  7 27  1  0
  7 28  1  0
  8 29  1  0
  8 30  1  0
  9 31  1  0
 10 32  1  0
 10 33  1  0
 11 34  1  0
 11 35  1  0
 12 36  1  0
 12 37  1  0
 13 38  1  0
 13 39  1  0
 14 40  1  0
 15 41  1  0
 17 42  1  0
 18 43  1  0
 19 44  1  0
M  END
>  <Energy>  (369) 
683.41070294400322

>  <compound_id>  (369) 
46286

>  <target_id>  (369) 
1

>  <reference_id>  (369) 
40

>  <inspiration_ids>  (369) 
[40, 3]

>  <energy_score>  (369) 
602.5488628002308

>  <distance_score>  (369) 
7.153768269384572

>  <path>  (369) 
/opt/xchem-fragalysis-2/maxwin/BulkDock/SCRATCH/511025/C46286-P40/C46286-P40.minimised.mol

>  <scratch_subdir>  (369) 
/opt/xchem-fragalysis-2/maxwin/BulkDock/SCRATCH/511025/C46286-P40

>  <fragmenstein_runtime>  (369) 
20.04984426498413

>  <fragmenstein_outcome>  (369) 
too moved

>  <fragmenstein_mode>  (369) 
expansion

>  <fragmenstein_error>  (369) 


$$$$
C46286-P3
     RDKit          3D

 44 46  0  0  0  0  0  0  0  0999 V2000
   -0.5518   -7.8437   31.4617 C   0  0  0  0  0  0  0  0  0  0  0  0
   -1.5761   -6.8986   30.9467 O   0  0  0  0  0  0  0  0  0  0  0  0
   -2.7990   -6.3834   31.1523 C   0  0  0  0  0  0  0  0  0  0  0  0
   -3.9086   -6.8928   32.0594 C   0  0  0  0  0  0  0  0  0  0  0  0
   -4.1238   -8.7820   32.3010 C   0  0  0  0  0  0  0  0  0  0  0  0
   -4.7050  -10.3024   33.0048 N   0  0  0  0  0  0  0  0  0  0  0  0
   -4.1723  -10.1751   34.2990 C   0  0  0  0  0  0  0  0  0  0  0  0
   -5.8947  -11.6394   32.4387 C   0  0  0  0  0  0  0  0  0  0  0  0
   -7.0001  -12.6545   33.1745 C   0  0  0  0  0  0  0  0  0  0  0  0
   -7.2600  -14.0799   32.7081 C   0  0  0  0  0  0  0  0  0  0  0  0
   -8.7583  -14.1268   33.0083 C   0  0  0  0  0  0  0  0  0  0  0  0
   -8.7427  -13.6440   34.4464 C   0  0  0  0  0  0  0  0  0  0  0  0
   -7.7750  -12.4993   34.4700 C   0  0  0  0  0  0  0  0  0  0  0  0
   -5.0374   -5.8933   31.9572 C   0  0  0  0  0  0  0  0  0  0  0  0
   -5.1419   -4.6987   31.2233 C   0  0  0  0  0  0  0  0  0  0  0  0
   -4.1116   -4.3871   30.3867 C   0  0  0  0  0  0  0  0  0  0  0  0
   -4.0129   -3.3201   29.5239 N   0  0  0  0  0  0  0  0  0  0  0  0
   -2.8903   -3.4300   28.7775 C   0  0  0  0  0  0  0  0  0  0  0  0
   -2.2543   -4.5643   29.2131 C   0  0  0  0  0  0  0  0  0  0  0  0
   -2.9870   -5.1884   30.2880 C   0  0  0  0  0  0  0  0  0  0  0  0
    0.4758   -7.8838   31.1025 H   0  0  0  0  0  0  0  0  0  0  0  0
   -0.3102   -7.5554   32.4550 H   0  0  0  0  0  0  0  0  0  0  0  0
   -0.8087   -8.8247   31.0613 H   0  0  0  0  0  0  0  0  0  0  0  0
   -3.7747   -9.6746   31.7089 H   0  0  0  0  0  0  0  0  0  0  0  0
   -3.2314   -8.7542   31.6966 H   0  0  0  0  0  0  0  0  0  0  0  0
   -3.1100  -10.2042   34.5286 H   0  0  0  0  0  0  0  0  0  0  0  0
   -4.5977  -10.6786   35.1338 H   0  0  0  0  0  0  0  0  0  0  0  0
   -4.1093   -9.1398   34.3963 H   0  0  0  0  0  0  0  0  0  0  0  0
   -6.7643  -11.1919   31.9768 H   0  0  0  0  0  0  0  0  0  0  0  0
   -5.4205  -12.2889   31.6877 H   0  0  0  0  0  0  0  0  0  0  0  0
   -7.7806  -12.3171   32.5200 H   0  0  0  0  0  0  0  0  0  0  0  0
   -6.9947  -14.2275   31.6634 H   0  0  0  0  0  0  0  0  0  0  0  0
   -6.7893  -14.8384   33.3303 H   0  0  0  0  0  0  0  0  0  0  0  0
   -9.3387  -13.4149   32.4119 H   0  0  0  0  0  0  0  0  0  0  0  0
   -9.1913  -15.0966   32.7859 H   0  0  0  0  0  0  0  0  0  0  0  0
   -8.2027  -14.3335   35.0768 H   0  0  0  0  0  0  0  0  0  0  0  0
   -9.7246  -13.4623   34.8817 H   0  0  0  0  0  0  0  0  0  0  0  0
   -8.3205  -11.5698   34.5077 H   0  0  0  0  0  0  0  0  0  0  0  0
   -7.1966  -12.5945   35.3825 H   0  0  0  0  0  0  0  0  0  0  0  0
   -6.0309   -6.0229   32.3873 H   0  0  0  0  0  0  0  0  0  0  0  0
   -6.0622   -4.1232   31.2548 H   0  0  0  0  0  0  0  0  0  0  0  0
   -4.7041   -2.5898   29.4280 H   0  0  0  0  0  0  0  0  0  0  0  0
   -2.6291   -2.7160   28.0073 H   0  0  0  0  0  0  0  0  0  0  0  0
   -1.3336   -4.8665   28.7587 H   0  0  0  0  0  0  0  0  0  0  0  0
  1  2  1  0
  2  3  1  0
  3  4  2  0
  4  5  1  0
  5  6  1  0
  6  7  1  0
  6  8  1  0
  8  9  1  0
  9 10  1  0
 10 11  1  0
 11 12  1  0
 12 13  1  0
  4 14  1  0
 14 15  2  0
 15 16  1  0
 16 17  1  0
 17 18  1  0
 18 19  2  0
 19 20  1  0
 20  3  1  0
 13  9  1  0
 20 16  2  0
  1 21  1  0
  1 22  1  0
  1 23  1  0
  5 24  1  0
  5 25  1  0
  7 26  1  0
  7 27  1  0
  7 28  1  0
  8 29  1  0
  8 30  1  0
  9 31  1  0
 10 32  1  0
 10 33  1  0
 11 34  1  0
 11 35  1  0
 12 36  1  0
 12 37  1  0
 13 38  1  0
 13 39  1  0
 14 40  1  0
 15 41  1  0
 17 42  1  0
 18 43  1  0
 19 44  1  0
M  END
>  <Energy>  (370) 
511.32817081876038

>  <compound_id>  (370) 
46286

>  <target_id>  (370) 
1

>  <reference_id>  (370) 
3

>  <inspiration_ids>  (370) 
[40, 3]

>  <energy_score>  (370) 
430.4663306749828

>  <distance_score>  (370) 
6.5251970845918805

>  <path>  (370) 
/opt/xchem-fragalysis-2/maxwin/BulkDock/SCRATCH/511025/C46286-P3/C46286-P3.minimised.mol

>  <scratch_subdir>  (370) 
/opt/xchem-fragalysis-2/maxwin/BulkDock/SCRATCH/511025/C46286-P3

>  <fragmenstein_runtime>  (370) 
18.79645085334778

>  <fragmenstein_outcome>  (370) 
too moved

>  <fragmenstein_mode>  (370) 
expansion

>  <fragmenstein_error>  (370) 


$$$$
C46287-P40
     RDKit          3D

 51 54  0  0  0  0  0  0  0  0999 V2000
   -9.5428  -14.0690   27.4155 C   0  0  0  0  0  0  0  0  0  0  0  0
   -8.5315  -14.7655   26.6715 N   0  0  0  0  0  0  0  0  0  0  0  0
   -7.1883  -13.4183   26.4959 C   0  0  0  0  0  0  0  0  0  0  0  0
   -6.5821  -11.8660   25.4584 C   0  0  0  0  0  0  0  0  0  0  0  0
   -6.7375  -11.1404   24.1228 C   0  0  0  0  0  0  0  0  0  0  0  0
   -6.1127  -10.0086   23.4975 C   0  0  0  0  0  0  0  0  0  0  0  0
   -4.8368  -10.4504   23.4761 C   0  0  0  0  0  0  0  0  0  0  0  0
   -3.8779  -10.4251   22.5059 N   0  0  0  0  0  0  0  0  0  0  0  0
   -2.9192  -11.3416   22.8227 C   0  0  0  0  0  0  0  0  0  0  0  0
   -3.2077  -11.8052   24.0859 C   0  0  0  0  0  0  0  0  0  0  0  0
   -4.4296  -11.2528   24.5190 C   0  0  0  0  0  0  0  0  0  0  0  0
   -5.3714  -11.3788   25.6798 C   0  0  0  0  0  0  0  0  0  0  0  0
   -8.6003  -16.5886   27.2062 C   0  0  0  0  0  0  0  0  0  0  0  0
   -9.3944  -18.4358   27.5837 C   0  0  0  0  0  0  0  0  0  0  0  0
   -9.8384  -20.5303   27.2134 C   0  0  0  0  0  0  0  0  0  0  0  0
  -10.1579  -21.6284   28.0610 C   0  0  0  0  0  0  0  0  0  0  0  0
  -10.2205  -22.8295   27.7845 O   0  0  0  0  0  0  0  0  0  0  0  0
  -10.3396  -20.6603   29.1364 N   0  0  0  0  0  0  0  0  0  0  0  0
  -10.9657  -21.8849   29.6503 C   0  0  0  0  0  0  0  0  0  0  0  0
  -12.2519  -21.9819   28.9300 C   0  0  0  0  0  0  0  0  0  0  0  0
  -13.0239  -21.1649   29.8333 C   0  0  0  0  0  0  0  0  0  0  0  0
  -12.2796  -21.1102   31.0423 C   0  0  0  0  0  0  0  0  0  0  0  0
  -11.2589  -22.0382   31.0459 C   0  0  0  0  0  0  0  0  0  0  0  0
   -8.8258  -19.5372   28.4148 C   0  0  0  0  0  0  0  0  0  0  0  0
   -9.1036  -13.8845   28.3786 H   0  0  0  0  0  0  0  0  0  0  0  0
  -10.5256  -14.5659   27.4381 H   0  0  0  0  0  0  0  0  0  0  0  0
   -9.7950  -13.1414   26.9448 H   0  0  0  0  0  0  0  0  0  0  0  0
   -6.8243  -14.1133   25.8123 H   0  0  0  0  0  0  0  0  0  0  0  0
   -6.9162  -13.3059   27.5163 H   0  0  0  0  0  0  0  0  0  0  0  0
   -7.1844  -11.6340   23.2283 H   0  0  0  0  0  0  0  0  0  0  0  0
   -6.5422   -9.5567   22.6076 H   0  0  0  0  0  0  0  0  0  0  0  0
   -3.9611   -9.9447   21.6221 H   0  0  0  0  0  0  0  0  0  0  0  0
   -2.1040  -11.5773   22.1522 H   0  0  0  0  0  0  0  0  0  0  0  0
   -2.6376  -12.5682   24.5857 H   0  0  0  0  0  0  0  0  0  0  0  0
   -5.0119  -11.6693   26.6658 H   0  0  0  0  0  0  0  0  0  0  0  0
   -8.9437  -16.6069   26.1916 H   0  0  0  0  0  0  0  0  0  0  0  0
   -7.7235  -16.5976   27.8146 H   0  0  0  0  0  0  0  0  0  0  0  0
  -10.2854  -17.8152   27.3878 H   0  0  0  0  0  0  0  0  0  0  0  0
  -10.3257  -20.6984   26.2532 H   0  0  0  0  0  0  0  0  0  0  0  0
  -11.0014  -20.9209   27.0658 H   0  0  0  0  0  0  0  0  0  0  0  0
  -10.5281  -22.8788   29.5400 H   0  0  0  0  0  0  0  0  0  0  0  0
  -12.3137  -23.0545   28.7974 H   0  0  0  0  0  0  0  0  0  0  0  0
  -12.4232  -21.6329   27.9140 H   0  0  0  0  0  0  0  0  0  0  0  0
  -13.0942  -20.1569   29.4349 H   0  0  0  0  0  0  0  0  0  0  0  0
  -13.9533  -21.6037   30.1819 H   0  0  0  0  0  0  0  0  0  0  0  0
  -12.8397  -20.9518   31.9286 H   0  0  0  0  0  0  0  0  0  0  0  0
  -11.5205  -20.4173   31.1574 H   0  0  0  0  0  0  0  0  0  0  0  0
  -10.4285  -21.5764   31.5944 H   0  0  0  0  0  0  0  0  0  0  0  0
  -11.3679  -23.0125   31.4859 H   0  0  0  0  0  0  0  0  0  0  0  0
   -8.1979  -19.5134   29.2444 H   0  0  0  0  0  0  0  0  0  0  0  0
   -8.4638  -18.4794   28.7162 H   0  0  0  0  0  0  0  0  0  0  0  0
  1  2  1  0
  2  3  1  0
  3  4  1  0
  4  5  2  0
  5  6  1  0
  6  7  2  0
  7  8  1  0
  8  9  1  0
  9 10  2  0
 10 11  1  0
 11 12  2  0
  2 13  1  0
 13 14  1  0
 14 15  1  0
 15 16  1  0
 16 17  2  0
 16 18  1  0
 18 19  1  0
 19 20  1  0
 20 21  1  0
 21 22  1  0
 22 23  1  0
 18 24  1  0
 12  4  1  0
 24 14  1  0
 11  7  1  0
 23 19  1  0
  1 25  1  0
  1 26  1  0
  1 27  1  0
  3 28  1  0
  3 29  1  0
  5 30  1  0
  6 31  1  0
  8 32  1  0
  9 33  1  0
 10 34  1  0
 12 35  1  0
 13 36  1  0
 13 37  1  0
 14 38  1  0
 15 39  1  0
 15 40  1  0
 19 41  1  0
 20 42  1  0
 20 43  1  0
 21 44  1  0
 21 45  1  0
 22 46  1  0
 22 47  1  0
 23 48  1  0
 23 49  1  0
 24 50  1  0
 24 51  1  0
M  END
>  <Energy>  (371) 
1215.9787178707636

>  <compound_id>  (371) 
46287

>  <target_id>  (371) 
1

>  <reference_id>  (371) 
40

>  <inspiration_ids>  (371) 
[40, 3]

>  <energy_score>  (371) 
1162.1467265211763

>  <distance_score>  (371) 
7.507126318395041

>  <path>  (371) 
/opt/xchem-fragalysis-2/maxwin/BulkDock/SCRATCH/511025/C46287-P40/C46287-P40.minimised.mol

>  <scratch_subdir>  (371) 
/opt/xchem-fragalysis-2/maxwin/BulkDock/SCRATCH/511025/C46287-P40

>  <fragmenstein_runtime>  (371) 
43.43316459655762

>  <fragmenstein_outcome>  (371) 
too moved

>  <fragmenstein_mode>  (371) 
expansion

>  <fragmenstein_error>  (371) 


$$$$
C46287-P3
     RDKit          3D

 51 54  0  0  0  0  0  0  0  0999 V2000
   -1.4433  -16.5994   25.1098 C   0  0  0  0  0  0  0  0  0  0  0  0
   -1.8567  -15.6492   26.1493 N   0  0  0  0  0  0  0  0  0  0  0  0
   -0.7979  -14.5997   26.2772 C   0  0  0  0  0  0  0  0  0  0  0  0
   -0.7659  -13.9399   27.6022 C   0  0  0  0  0  0  0  0  0  0  0  0
   -1.0926  -14.5074   28.7466 C   0  0  0  0  0  0  0  0  0  0  0  0
   -1.8957  -13.7185   29.5375 C   0  0  0  0  0  0  0  0  0  0  0  0
   -1.7363  -12.3331   29.5097 C   0  0  0  0  0  0  0  0  0  0  0  0
   -1.9955  -11.2995   30.5383 N   0  0  0  0  0  0  0  0  0  0  0  0
   -1.3226  -10.1248   30.2192 C   0  0  0  0  0  0  0  0  0  0  0  0
   -0.4989  -10.4551   29.2121 C   0  0  0  0  0  0  0  0  0  0  0  0
   -0.6937  -11.8479   28.7638 C   0  0  0  0  0  0  0  0  0  0  0  0
   -0.0864  -12.8306   27.9534 C   0  0  0  0  0  0  0  0  0  0  0  0
   -3.3155  -15.1224   25.8745 C   0  0  0  0  0  0  0  0  0  0  0  0
   -5.0984  -16.0443   26.4670 C   0  0  0  0  0  0  0  0  0  0  0  0
   -6.8388  -15.1541   26.8971 C   0  0  0  0  0  0  0  0  0  0  0  0
   -8.0267  -16.6129   27.3312 C   0  0  0  0  0  0  0  0  0  0  0  0
   -9.2006  -16.4826   27.3824 O   0  0  0  0  0  0  0  0  0  0  0  0
   -7.3562  -18.3346   27.1616 N   0  0  0  0  0  0  0  0  0  0  0  0
   -8.0137  -20.0138   28.0972 C   0  0  0  0  0  0  0  0  0  0  0  0
   -9.8273  -19.5368   28.5717 C   0  0  0  0  0  0  0  0  0  0  0  0
  -10.6745  -20.4936   29.4932 C   0  0  0  0  0  0  0  0  0  0  0  0
  -10.0228  -21.8070   29.2525 C   0  0  0  0  0  0  0  0  0  0  0  0
   -9.3833  -21.4006   27.9474 C   0  0  0  0  0  0  0  0  0  0  0  0
   -5.8815  -17.8380   26.3330 C   0  0  0  0  0  0  0  0  0  0  0  0
   -1.3738  -16.1217   24.1258 H   0  0  0  0  0  0  0  0  0  0  0  0
   -2.1088  -17.4605   25.0278 H   0  0  0  0  0  0  0  0  0  0  0  0
   -0.4604  -17.0224   25.3495 H   0  0  0  0  0  0  0  0  0  0  0  0
    0.1924  -15.0533   26.1373 H   0  0  0  0  0  0  0  0  0  0  0  0
   -0.9291  -13.8559   25.4819 H   0  0  0  0  0  0  0  0  0  0  0  0
   -0.9552  -15.5664   28.9342 H   0  0  0  0  0  0  0  0  0  0  0  0
   -2.3367  -14.1880   30.4131 H   0  0  0  0  0  0  0  0  0  0  0  0
   -2.6912  -11.3822   31.2735 H   0  0  0  0  0  0  0  0  0  0  0  0
   -1.3983   -9.2002   30.7486 H   0  0  0  0  0  0  0  0  0  0  0  0
    0.2212   -9.6917   29.0369 H   0  0  0  0  0  0  0  0  0  0  0  0
    0.9213  -12.7874   27.6295 H   0  0  0  0  0  0  0  0  0  0  0  0
   -3.3312  -14.1108   26.3443 H   0  0  0  0  0  0  0  0  0  0  0  0
   -3.1939  -14.8733   24.8128 H   0  0  0  0  0  0  0  0  0  0  0  0
   -5.4590  -15.9223   25.6095 H   0  0  0  0  0  0  0  0  0  0  0  0
   -7.5959  -14.6375   26.2974 H   0  0  0  0  0  0  0  0  0  0  0  0
   -6.2120  -14.5532   27.6368 H   0  0  0  0  0  0  0  0  0  0  0  0
   -7.3464  -20.7212   27.5998 H   0  0  0  0  0  0  0  0  0  0  0  0
  -10.3803  -19.4084   27.6472 H   0  0  0  0  0  0  0  0  0  0  0  0
   -9.9253  -18.6022   29.1161 H   0  0  0  0  0  0  0  0  0  0  0  0
  -10.6922  -20.2054   30.5502 H   0  0  0  0  0  0  0  0  0  0  0  0
  -11.7137  -20.4852   29.1486 H   0  0  0  0  0  0  0  0  0  0  0  0
   -9.3126  -22.0988   30.0296 H   0  0  0  0  0  0  0  0  0  0  0  0
  -10.7574  -22.6090   29.1330 H   0  0  0  0  0  0  0  0  0  0  0  0
   -9.1544  -22.1708   27.2389 H   0  0  0  0  0  0  0  0  0  0  0  0
  -10.2846  -21.1601   27.3309 H   0  0  0  0  0  0  0  0  0  0  0  0
   -5.5252  -18.7103   27.0640 H   0  0  0  0  0  0  0  0  0  0  0  0
   -5.3037  -17.9605   25.4093 H   0  0  0  0  0  0  0  0  0  0  0  0
  1  2  1  0
  2  3  1  0
  3  4  1  0
  4  5  2  0
  5  6  1  0
  6  7  2  0
  7  8  1  0
  8  9  1  0
  9 10  2  0
 10 11  1  0
 11 12  2  0
  2 13  1  0
 13 14  1  0
 14 15  1  0
 15 16  1  0
 16 17  2  0
 16 18  1  0
 18 19  1  0
 19 20  1  0
 20 21  1  0
 21 22  1  0
 22 23  1  0
 18 24  1  0
 12  4  1  0
 24 14  1  0
 11  7  1  0
 23 19  1  0
  1 25  1  0
  1 26  1  0
  1 27  1  0
  3 28  1  0
  3 29  1  0
  5 30  1  0
  6 31  1  0
  8 32  1  0
  9 33  1  0
 10 34  1  0
 12 35  1  0
 13 36  1  0
 13 37  1  0
 14 38  1  0
 15 39  1  0
 15 40  1  0
 19 41  1  0
 20 42  1  0
 20 43  1  0
 21 44  1  0
 21 45  1  0
 22 46  1  0
 22 47  1  0
 23 48  1  0
 23 49  1  0
 24 50  1  0
 24 51  1  0
M  END
>  <Energy>  (372) 
808.86432576913296

>  <compound_id>  (372) 
46287

>  <target_id>  (372) 
1

>  <reference_id>  (372) 
3

>  <inspiration_ids>  (372) 
[40, 3]

>  <energy_score>  (372) 
755.032334419536

>  <distance_score>  (372) 
7.475114366359701

>  <path>  (372) 
/opt/xchem-fragalysis-2/maxwin/BulkDock/SCRATCH/511025/C46287-P3/C46287-P3.minimised.mol

>  <scratch_subdir>  (372) 
/opt/xchem-fragalysis-2/maxwin/BulkDock/SCRATCH/511025/C46287-P3

>  <fragmenstein_runtime>  (372) 
26.76278328895569

>  <fragmenstein_outcome>  (372) 
too moved

>  <fragmenstein_mode>  (372) 
expansion

>  <fragmenstein_error>  (372) 


$$$$
C46288-P40
     RDKit          3D

 38 40  0  0  0  0  0  0  0  0999 V2000
   -7.4144  -21.8617   27.5349 C   0  0  0  0  0  0  0  0  0  0  0  0
   -7.8661  -20.7353   27.6520 C   0  0  0  0  0  0  0  0  0  0  0  0
   -8.7669  -18.9011   27.9960 C   0  0  0  0  0  0  0  0  0  0  0  0
   -7.4494  -17.4321   28.3852 N   0  0  0  0  0  0  0  0  0  0  0  0
   -7.5600  -15.4945   28.2457 C   0  0  0  0  0  0  0  0  0  0  0  0
   -8.4898  -14.8533   27.7401 O   0  0  0  0  0  0  0  0  0  0  0  0
   -6.1669  -14.1260   29.1994 C   0  0  0  0  0  0  0  0  0  0  0  0
   -4.7545  -12.4413   29.1127 C   0  0  0  0  0  0  0  0  0  0  0  0
   -4.3812  -12.0157   27.7323 C   0  0  0  0  0  0  0  0  0  0  0  0
   -2.9701  -11.9830   27.3182 N   0  0  0  0  0  0  0  0  0  0  0  0
   -2.2442  -11.3966   28.3566 C   0  0  0  0  0  0  0  0  0  0  0  0
   -0.9547  -10.1623   28.5163 C   0  0  0  0  0  0  0  0  0  0  0  0
   -0.4220   -9.1549   29.3484 C   0  0  0  0  0  0  0  0  0  0  0  0
   -0.9312   -9.4326   30.4979 C   0  0  0  0  0  0  0  0  0  0  0  0
   -1.0490   -8.3534   31.8069 Cl  0  0  0  0  0  0  0  0  0  0  0  0
   -1.7466  -10.6270   30.3029 C   0  0  0  0  0  0  0  0  0  0  0  0
   -2.8814  -11.8559   29.4770 C   0  0  0  0  0  0  0  0  0  0  0  0
   -9.8513  -20.7562   27.9542 C   0  0  0  0  0  0  0  0  0  0  0  0
  -11.5034  -21.4159   27.2577 C   0  0  0  0  0  0  0  0  0  0  0  0
  -11.2025  -22.8643   27.3526 C   0  0  0  0  0  0  0  0  0  0  0  0
  -10.1066  -22.5719   28.3173 C   0  0  0  0  0  0  0  0  0  0  0  0
   -7.3411  -22.8314   27.1683 H   0  0  0  0  0  0  0  0  0  0  0  0
   -8.3492  -19.0400   28.9435 H   0  0  0  0  0  0  0  0  0  0  0  0
   -6.5324  -17.7049   28.7686 H   0  0  0  0  0  0  0  0  0  0  0  0
   -5.7262  -14.7810   30.0142 H   0  0  0  0  0  0  0  0  0  0  0  0
   -6.7902  -13.7453   29.9924 H   0  0  0  0  0  0  0  0  0  0  0  0
   -5.2052  -11.9705   27.0379 H   0  0  0  0  0  0  0  0  0  0  0  0
   -2.6943  -11.9611   26.3416 H   0  0  0  0  0  0  0  0  0  0  0  0
   -0.1608  -10.5124   28.0508 H   0  0  0  0  0  0  0  0  0  0  0  0
    0.3258   -8.4199   29.1315 H   0  0  0  0  0  0  0  0  0  0  0  0
   -0.9469  -11.2622   30.7595 H   0  0  0  0  0  0  0  0  0  0  0  0
  -10.3241  -20.5731   29.0399 H   0  0  0  0  0  0  0  0  0  0  0  0
  -11.8228  -21.1918   26.2401 H   0  0  0  0  0  0  0  0  0  0  0  0
  -12.3130  -21.2126   27.9700 H   0  0  0  0  0  0  0  0  0  0  0  0
  -12.0177  -23.4695   27.7464 H   0  0  0  0  0  0  0  0  0  0  0  0
  -10.9121  -23.3919   26.4403 H   0  0  0  0  0  0  0  0  0  0  0  0
  -10.5790  -22.7101   29.2882 H   0  0  0  0  0  0  0  0  0  0  0  0
   -9.3294  -23.2968   28.0818 H   0  0  0  0  0  0  0  0  0  0  0  0
  1  2  3  0
  2  3  1  0
  3  4  1  0
  4  5  1  0
  5  6  2  0
  5  7  1  0
  7  8  1  0
  8  9  2  0
  9 10  1  0
 10 11  1  0
 11 12  2  0
 12 13  1  0
 13 14  2  0
 14 15  1  0
 14 16  1  0
 16 17  2  0
  3 18  1  0
 18 19  1  0
 19 20  1  0
 20 21  1  0
 17  8  1  0
 21 18  1  0
 17 11  1  0
  1 22  1  0
  3 23  1  0
  4 24  1  0
  7 25  1  0
  7 26  1  0
  9 27  1  0
 10 28  1  0
 12 29  1  0
 13 30  1  0
 16 31  1  0
 18 32  1  0
 19 33  1  0
 19 34  1  0
 20 35  1  0
 20 36  1  0
 21 37  1  0
 21 38  1  0
M  END
>  <Energy>  (373) 
1398.5465754397596

>  <compound_id>  (373) 
46288

>  <target_id>  (373) 
1

>  <reference_id>  (373) 
40

>  <inspiration_ids>  (373) 
[40, 3]

>  <energy_score>  (373) 
1351.7420309276565

>  <distance_score>  (373) 
5.9962550497054785

>  <path>  (373) 
/opt/xchem-fragalysis-2/maxwin/BulkDock/SCRATCH/511025/C46288-P40/C46288-P40.minimised.mol

>  <scratch_subdir>  (373) 
/opt/xchem-fragalysis-2/maxwin/BulkDock/SCRATCH/511025/C46288-P40

>  <fragmenstein_runtime>  (373) 
16.923563480377197

>  <fragmenstein_outcome>  (373) 
too moved

>  <fragmenstein_mode>  (373) 
expansion

>  <fragmenstein_error>  (373) 


$$$$
C46288-P3
     RDKit          3D

 38 40  0  0  0  0  0  0  0  0999 V2000
  -11.2166  -19.1397   32.3388 C   0  0  0  0  0  0  0  0  0  0  0  0
  -11.4293  -18.9043   31.1816 C   0  0  0  0  0  0  0  0  0  0  0  0
  -11.9134  -18.7930   29.8144 C   0  0  0  0  0  0  0  0  0  0  0  0
  -11.2946  -18.0511   28.7847 N   0  0  0  0  0  0  0  0  0  0  0  0
  -11.6729  -16.2999   28.0593 C   0  0  0  0  0  0  0  0  0  0  0  0
  -12.4532  -15.4785   28.4146 O   0  0  0  0  0  0  0  0  0  0  0  0
  -10.7693  -15.6908   26.2963 C   0  0  0  0  0  0  0  0  0  0  0  0
  -10.2490  -14.4983   24.9597 C   0  0  0  0  0  0  0  0  0  0  0  0
  -10.4739  -14.5971   23.5766 C   0  0  0  0  0  0  0  0  0  0  0  0
   -9.9934  -13.5013   22.9031 N   0  0  0  0  0  0  0  0  0  0  0  0
   -9.2800  -12.7250   23.7569 C   0  0  0  0  0  0  0  0  0  0  0  0
   -8.4656  -11.6215   23.5301 C   0  0  0  0  0  0  0  0  0  0  0  0
   -7.7051  -11.2016   24.6297 C   0  0  0  0  0  0  0  0  0  0  0  0
   -7.7978  -11.7984   25.9161 C   0  0  0  0  0  0  0  0  0  0  0  0
   -6.6498  -11.4439   27.5411 Cl  0  0  0  0  0  0  0  0  0  0  0  0
   -8.6372  -12.8487   26.0025 C   0  0  0  0  0  0  0  0  0  0  0  0
   -9.4282  -13.3319   24.9942 C   0  0  0  0  0  0  0  0  0  0  0  0
  -11.6974  -20.3239   29.2469 C   0  0  0  0  0  0  0  0  0  0  0  0
  -12.0233  -20.6949   27.7356 C   0  0  0  0  0  0  0  0  0  0  0  0
  -11.2282  -21.9871   27.9654 C   0  0  0  0  0  0  0  0  0  0  0  0
  -10.4199  -21.1798   28.9984 C   0  0  0  0  0  0  0  0  0  0  0  0
  -11.1412  -19.3953   33.3697 H   0  0  0  0  0  0  0  0  0  0  0  0
  -12.8597  -18.5695   29.4202 H   0  0  0  0  0  0  0  0  0  0  0  0
  -10.5353  -18.4926   28.2825 H   0  0  0  0  0  0  0  0  0  0  0  0
   -9.7155  -16.0683   26.2282 H   0  0  0  0  0  0  0  0  0  0  0  0
  -11.3393  -14.7375   26.3280 H   0  0  0  0  0  0  0  0  0  0  0  0
  -10.9605  -15.3695   22.9956 H   0  0  0  0  0  0  0  0  0  0  0  0
  -10.0528  -13.3680   21.9041 H   0  0  0  0  0  0  0  0  0  0  0  0
   -8.3626  -11.1588   22.5565 H   0  0  0  0  0  0  0  0  0  0  0  0
   -7.0338  -10.3557   24.4633 H   0  0  0  0  0  0  0  0  0  0  0  0
   -8.3917  -13.6270   26.6706 H   0  0  0  0  0  0  0  0  0  0  0  0
  -12.2461  -20.9296   29.9779 H   0  0  0  0  0  0  0  0  0  0  0  0
  -11.5681  -20.0418   26.9909 H   0  0  0  0  0  0  0  0  0  0  0  0
  -13.0459  -20.8642   27.4159 H   0  0  0  0  0  0  0  0  0  0  0  0
  -11.8154  -22.8053   28.3980 H   0  0  0  0  0  0  0  0  0  0  0  0
  -10.6759  -22.3666   27.1037 H   0  0  0  0  0  0  0  0  0  0  0  0
  -10.0605  -21.7678   29.8468 H   0  0  0  0  0  0  0  0  0  0  0  0
   -9.6006  -20.6428   28.5338 H   0  0  0  0  0  0  0  0  0  0  0  0
  1  2  3  0
  2  3  1  0
  3  4  1  0
  4  5  1  0
  5  6  2  0
  5  7  1  0
  7  8  1  0
  8  9  2  0
  9 10  1  0
 10 11  1  0
 11 12  2  0
 12 13  1  0
 13 14  2  0
 14 15  1  0
 14 16  1  0
 16 17  2  0
  3 18  1  0
 18 19  1  0
 19 20  1  0
 20 21  1  0
 17  8  1  0
 21 18  1  0
 17 11  1  0
  1 22  1  0
  3 23  1  0
  4 24  1  0
  7 25  1  0
  7 26  1  0
  9 27  1  0
 10 28  1  0
 12 29  1  0
 13 30  1  0
 16 31  1  0
 18 32  1  0
 19 33  1  0
 19 34  1  0
 20 35  1  0
 20 36  1  0
 21 37  1  0
 21 38  1  0
M  END
>  <Energy>  (374) 
387.24662249978599

>  <compound_id>  (374) 
46288

>  <target_id>  (374) 
1

>  <reference_id>  (374) 
3

>  <inspiration_ids>  (374) 
[40, 3]

>  <energy_score>  (374) 
340.4420779876754

>  <distance_score>  (374) 
9.970461120662641

>  <path>  (374) 
/opt/xchem-fragalysis-2/maxwin/BulkDock/SCRATCH/511025/C46288-P3/C46288-P3.minimised.mol

>  <scratch_subdir>  (374) 
/opt/xchem-fragalysis-2/maxwin/BulkDock/SCRATCH/511025/C46288-P3

>  <fragmenstein_runtime>  (374) 
22.825966119766235

>  <fragmenstein_outcome>  (374) 
too moved

>  <fragmenstein_mode>  (374) 
expansion

>  <fragmenstein_error>  (374) 


$$$$
C46289-P40
     RDKit          3D

 42 44  0  0  0  0  0  0  0  0999 V2000
  -10.8833  -21.4382   27.0711 C   0  0  0  0  0  0  0  0  0  0  0  0
   -9.8786  -20.8318   27.5507 C   0  0  0  0  0  0  0  0  0  0  0  0
   -8.9733  -19.3586   28.2997 C   0  0  0  0  0  0  0  0  0  0  0  0
   -7.4565  -17.8875   28.2415 N   0  0  0  0  0  0  0  0  0  0  0  0
   -6.4240  -17.4967   28.8538 C   0  0  0  0  0  0  0  0  0  0  0  0
   -6.5084  -18.4725   30.1382 O   0  0  0  0  0  0  0  0  0  0  0  0
   -4.7036  -16.1963   29.1309 C   0  0  0  0  0  0  0  0  0  0  0  0
   -2.9909  -14.8406   29.0906 C   0  0  0  0  0  0  0  0  0  0  0  0
   -2.1748  -15.0012   27.8630 C   0  0  0  0  0  0  0  0  0  0  0  0
   -2.3707  -13.8556   26.7437 N   0  0  0  0  0  0  0  0  0  0  0  0
   -2.7618  -12.4173   27.3268 C   0  0  0  0  0  0  0  0  0  0  0  0
   -2.0196  -11.2474   27.4364 C   0  0  0  0  0  0  0  0  0  0  0  0
   -0.9590  -10.2643   28.3740 C   0  0  0  0  0  0  0  0  0  0  0  0
   -1.0011  -10.2847   29.6158 C   0  0  0  0  0  0  0  0  0  0  0  0
   -1.8180  -11.3990   29.8838 C   0  0  0  0  0  0  0  0  0  0  0  0
   -1.0406  -10.9270   31.2826 O   0  0  0  0  0  0  0  0  0  0  0  0
   -1.4045   -9.4030   31.8650 C   0  0  0  0  0  0  0  0  0  0  0  0
   -2.6694  -12.8145   29.0493 C   0  0  0  0  0  0  0  0  0  0  0  0
  -10.4528  -20.4978   29.3709 C   0  0  0  0  0  0  0  0  0  0  0  0
  -10.8082  -22.2055   29.3618 C   0  0  0  0  0  0  0  0  0  0  0  0
  -12.2029  -22.0199   29.0351 C   0  0  0  0  0  0  0  0  0  0  0  0
  -12.1470  -20.6291   29.3920 C   0  0  0  0  0  0  0  0  0  0  0  0
  -11.7055  -21.8414   26.5104 H   0  0  0  0  0  0  0  0  0  0  0  0
   -8.2452  -20.1435   28.1744 H   0  0  0  0  0  0  0  0  0  0  0  0
   -8.1674  -17.8549   27.5213 H   0  0  0  0  0  0  0  0  0  0  0  0
   -4.6996  -16.1645   30.2278 H   0  0  0  0  0  0  0  0  0  0  0  0
   -4.0536  -16.7985   28.4299 H   0  0  0  0  0  0  0  0  0  0  0  0
   -1.8995  -15.9316   27.3752 H   0  0  0  0  0  0  0  0  0  0  0  0
   -1.9866  -13.8683   25.8165 H   0  0  0  0  0  0  0  0  0  0  0  0
   -2.7903  -11.1685   28.2069 H   0  0  0  0  0  0  0  0  0  0  0  0
   -0.6210   -9.2088   28.3067 H   0  0  0  0  0  0  0  0  0  0  0  0
   -0.3549   -9.5555   30.0595 H   0  0  0  0  0  0  0  0  0  0  0  0
   -0.6662   -9.1753   32.6332 H   0  0  0  0  0  0  0  0  0  0  0  0
   -1.2998   -8.5731   31.1593 H   0  0  0  0  0  0  0  0  0  0  0  0
   -2.4024   -9.3714   32.2734 H   0  0  0  0  0  0  0  0  0  0  0  0
  -10.5003  -20.5009   30.4700 H   0  0  0  0  0  0  0  0  0  0  0  0
  -11.0142  -22.5446   30.3694 H   0  0  0  0  0  0  0  0  0  0  0  0
  -10.3263  -22.9673   28.7446 H   0  0  0  0  0  0  0  0  0  0  0  0
  -12.7506  -22.5046   29.8319 H   0  0  0  0  0  0  0  0  0  0  0  0
  -12.5092  -22.3230   28.0513 H   0  0  0  0  0  0  0  0  0  0  0  0
  -12.7897  -19.8775   29.0184 H   0  0  0  0  0  0  0  0  0  0  0  0
  -12.5004  -20.7571   30.4220 H   0  0  0  0  0  0  0  0  0  0  0  0
  1  2  3  0
  2  3  1  0
  3  4  1  0
  4  5  1  0
  5  6  2  0
  5  7  1  0
  7  8  1  0
  8  9  2  0
  9 10  1  0
 10 11  1  0
 11 12  2  0
 12 13  1  0
 13 14  2  0
 14 15  1  0
 15 16  1  0
 16 17  1  0
 15 18  2  0
  3 19  1  0
 19 20  1  0
 20 21  1  0
 21 22  1  0
 18  8  1  0
 22 19  1  0
 18 11  1  0
  1 23  1  0
  3 24  1  0
  4 25  1  0
  7 26  1  0
  7 27  1  0
  9 28  1  0
 10 29  1  0
 12 30  1  0
 13 31  1  0
 14 32  1  0
 17 33  1  0
 17 34  1  0
 17 35  1  0
 19 36  1  0
 20 37  1  0
 20 38  1  0
 21 39  1  0
 21 40  1  0
 22 41  1  0
 22 42  1  0
M  END
>  <Energy>  (375) 
1736.2274125167171

>  <compound_id>  (375) 
46289

>  <target_id>  (375) 
1

>  <reference_id>  (375) 
40

>  <inspiration_ids>  (375) 
[40, 3]

>  <energy_score>  (375) 
1671.5077273317402

>  <distance_score>  (375) 
6.352076735282778

>  <path>  (375) 
/opt/xchem-fragalysis-2/maxwin/BulkDock/SCRATCH/511025/C46289-P40/C46289-P40.minimised.mol

>  <scratch_subdir>  (375) 
/opt/xchem-fragalysis-2/maxwin/BulkDock/SCRATCH/511025/C46289-P40

>  <fragmenstein_runtime>  (375) 
24.35063648223877

>  <fragmenstein_outcome>  (375) 
too moved

>  <fragmenstein_mode>  (375) 
expansion

>  <fragmenstein_error>  (375) 


$$$$
C46289-P3
     RDKit          3D

 42 44  0  0  0  0  0  0  0  0999 V2000
  -10.4432   -8.4080   31.1211 C   0  0  0  0  0  0  0  0  0  0  0  0
  -10.2354   -8.1653   29.9627 C   0  0  0  0  0  0  0  0  0  0  0  0
  -10.0190   -7.8274   28.5488 C   0  0  0  0  0  0  0  0  0  0  0  0
   -8.8193   -7.0094   28.3883 N   0  0  0  0  0  0  0  0  0  0  0  0
   -8.4700   -5.7120   28.9443 C   0  0  0  0  0  0  0  0  0  0  0  0
   -9.0461   -5.0206   29.7399 O   0  0  0  0  0  0  0  0  0  0  0  0
   -7.1854   -5.1310   28.2921 C   0  0  0  0  0  0  0  0  0  0  0  0
   -5.9790   -4.9098   29.1830 C   0  0  0  0  0  0  0  0  0  0  0  0
   -5.8984   -5.0658   30.5521 C   0  0  0  0  0  0  0  0  0  0  0  0
   -4.6468   -4.7138   30.9837 N   0  0  0  0  0  0  0  0  0  0  0  0
   -3.9094   -4.2376   29.9288 C   0  0  0  0  0  0  0  0  0  0  0  0
   -2.6351   -3.6686   29.9260 C   0  0  0  0  0  0  0  0  0  0  0  0
   -2.0988   -3.2861   28.7033 C   0  0  0  0  0  0  0  0  0  0  0  0
   -2.8296   -3.4344   27.5291 C   0  0  0  0  0  0  0  0  0  0  0  0
   -4.1441   -3.9311   27.5480 C   0  0  0  0  0  0  0  0  0  0  0  0
   -4.9363   -4.0297   26.4327 O   0  0  0  0  0  0  0  0  0  0  0  0
   -4.6132   -3.1691   25.3468 C   0  0  0  0  0  0  0  0  0  0  0  0
   -4.6911   -4.3746   28.7784 C   0  0  0  0  0  0  0  0  0  0  0  0
   -9.9824   -9.0538   27.6009 C   0  0  0  0  0  0  0  0  0  0  0  0
  -11.3782   -9.6536   27.2145 C   0  0  0  0  0  0  0  0  0  0  0  0
  -11.1471  -10.7648   28.2447 C   0  0  0  0  0  0  0  0  0  0  0  0
   -9.6332  -10.4942   28.0908 C   0  0  0  0  0  0  0  0  0  0  0  0
  -10.6269   -8.6046   32.1514 H   0  0  0  0  0  0  0  0  0  0  0  0
  -10.8363   -7.1681   28.2303 H   0  0  0  0  0  0  0  0  0  0  0  0
   -8.0567   -7.3359   27.8044 H   0  0  0  0  0  0  0  0  0  0  0  0
   -7.4836   -4.1493   27.8960 H   0  0  0  0  0  0  0  0  0  0  0  0
   -6.9182   -5.7105   27.4112 H   0  0  0  0  0  0  0  0  0  0  0  0
   -6.6385   -5.3817   31.2759 H   0  0  0  0  0  0  0  0  0  0  0  0
   -4.3306   -4.7559   31.9482 H   0  0  0  0  0  0  0  0  0  0  0  0
   -2.0937   -3.5074   30.8464 H   0  0  0  0  0  0  0  0  0  0  0  0
   -1.1020   -2.8531   28.6619 H   0  0  0  0  0  0  0  0  0  0  0  0
   -2.3532   -3.1305   26.6018 H   0  0  0  0  0  0  0  0  0  0  0  0
   -3.7202   -3.5242   24.8228 H   0  0  0  0  0  0  0  0  0  0  0  0
   -5.4468   -3.1995   24.6387 H   0  0  0  0  0  0  0  0  0  0  0  0
   -4.4921   -2.1314   25.6759 H   0  0  0  0  0  0  0  0  0  0  0  0
   -9.4268   -8.7836   26.6903 H   0  0  0  0  0  0  0  0  0  0  0  0
  -11.4224  -10.0188   26.1811 H   0  0  0  0  0  0  0  0  0  0  0  0
  -12.2506   -9.0197   27.3953 H   0  0  0  0  0  0  0  0  0  0  0  0
  -11.5263  -11.7416   27.9482 H   0  0  0  0  0  0  0  0  0  0  0  0
  -11.5446  -10.5401   29.2399 H   0  0  0  0  0  0  0  0  0  0  0  0
   -9.0335  -10.5713   29.0005 H   0  0  0  0  0  0  0  0  0  0  0  0
   -9.1633  -11.0903   27.3008 H   0  0  0  0  0  0  0  0  0  0  0  0
  1  2  3  0
  2  3  1  0
  3  4  1  0
  4  5  1  0
  5  6  2  0
  5  7  1  0
  7  8  1  0
  8  9  2  0
  9 10  1  0
 10 11  1  0
 11 12  2  0
 12 13  1  0
 13 14  2  0
 14 15  1  0
 15 16  1  0
 16 17  1  0
 15 18  2  0
  3 19  1  0
 19 20  1  0
 20 21  1  0
 21 22  1  0
 18  8  1  0
 22 19  1  0
 18 11  1  0
  1 23  1  0
  3 24  1  0
  4 25  1  0
  7 26  1  0
  7 27  1  0
  9 28  1  0
 10 29  1  0
 12 30  1  0
 13 31  1  0
 14 32  1  0
 17 33  1  0
 17 34  1  0
 17 35  1  0
 19 36  1  0
 20 37  1  0
 20 38  1  0
 21 39  1  0
 21 40  1  0
 22 41  1  0
 22 42  1  0
M  END
>  <Energy>  (376) 
57.08665056582678

>  <compound_id>  (376) 
46289

>  <target_id>  (376) 
1

>  <reference_id>  (376) 
3

>  <inspiration_ids>  (376) 
[40, 3]

>  <energy_score>  (376) 
-7.633034619129489

>  <distance_score>  (376) 
11.082471522252508

>  <path>  (376) 
/opt/xchem-fragalysis-2/maxwin/BulkDock/SCRATCH/511025/C46289-P3/C46289-P3.minimised.mol

>  <scratch_subdir>  (376) 
/opt/xchem-fragalysis-2/maxwin/BulkDock/SCRATCH/511025/C46289-P3

>  <fragmenstein_runtime>  (376) 
46.17181420326233

>  <fragmenstein_outcome>  (376) 
too moved

>  <fragmenstein_mode>  (376) 
expansion

>  <fragmenstein_error>  (376) 


$$$$
C46290-P40
     RDKit          3D

 41 43  0  0  0  0  0  0  0  0999 V2000
  -10.3789  -20.5407   29.1075 C   0  0  0  0  0  0  0  0  0  0  0  0
   -9.3001  -19.8218   28.3604 C   0  0  0  0  0  0  0  0  0  0  0  0
   -7.9873  -18.4827   28.7389 C   0  0  0  0  0  0  0  0  0  0  0  0
   -6.0553  -17.5231   28.6861 N   0  0  0  0  0  0  0  0  0  0  0  0
   -5.1591  -15.8982   29.7237 C   0  0  0  0  0  0  0  0  0  0  0  0
   -5.9010  -15.5116   30.5837 O   0  0  0  0  0  0  0  0  0  0  0  0
   -3.3109  -14.4500   29.6501 C   0  0  0  0  0  0  0  0  0  0  0  0
   -2.6567  -12.2382   29.5853 C   0  0  0  0  0  0  0  0  0  0  0  0
   -1.6894  -10.8882   28.9197 C   0  0  0  0  0  0  0  0  0  0  0  0
    0.0878  -10.6086   29.3782 C   0  0  0  0  0  0  0  0  0  0  0  0
   -1.1141   -9.3336   29.0809 N   0  0  0  0  0  0  0  0  0  0  0  0
   -0.9548   -9.1557   30.3595 C   0  0  0  0  0  0  0  0  0  0  0  0
   -0.3970   -7.9643   30.9892 C   0  0  0  0  0  0  0  0  0  0  0  0
   -0.6627   -7.7125   32.2880 C   0  0  0  0  0  0  0  0  0  0  0  0
   -1.6523   -8.5062   32.7114 C   0  0  0  0  0  0  0  0  0  0  0  0
   -2.0939   -9.6001   31.8351 C   0  0  0  0  0  0  0  0  0  0  0  0
   -1.6860  -10.5715   30.4621 C   0  0  0  0  0  0  0  0  0  0  0  0
   -8.0457  -20.5750   27.9235 C   0  0  0  0  0  0  0  0  0  0  0  0
   -7.2680  -22.2386   27.7852 C   0  0  0  0  0  0  0  0  0  0  0  0
   -8.4826  -23.1971   27.6532 C   0  0  0  0  0  0  0  0  0  0  0  0
   -9.4397  -22.2091   28.1229 C   0  0  0  0  0  0  0  0  0  0  0  0
  -11.2195  -21.0399   29.5637 H   0  0  0  0  0  0  0  0  0  0  0  0
   -8.4305  -17.8361   27.9614 H   0  0  0  0  0  0  0  0  0  0  0  0
   -5.3501  -17.9061   27.9909 H   0  0  0  0  0  0  0  0  0  0  0  0
   -2.5772  -14.8390   28.8941 H   0  0  0  0  0  0  0  0  0  0  0  0
   -2.8598  -14.8434   30.6038 H   0  0  0  0  0  0  0  0  0  0  0  0
    0.7227   -9.6119   29.4185 H   0  0  0  0  0  0  0  0  0  0  0  0
   -0.0185  -10.4888   28.2999 H   0  0  0  0  0  0  0  0  0  0  0  0
    0.6256  -11.5461   29.7691 H   0  0  0  0  0  0  0  0  0  0  0  0
   -0.7321   -8.6989   28.3865 H   0  0  0  0  0  0  0  0  0  0  0  0
    0.1540   -7.2433   30.3916 H   0  0  0  0  0  0  0  0  0  0  0  0
   -0.3053   -6.8516   32.8324 H   0  0  0  0  0  0  0  0  0  0  0  0
   -2.1958   -8.2888   33.6235 H   0  0  0  0  0  0  0  0  0  0  0  0
   -3.1493   -9.2826   31.6884 H   0  0  0  0  0  0  0  0  0  0  0  0
   -7.3350  -20.3631   27.1180 H   0  0  0  0  0  0  0  0  0  0  0  0
   -6.5659  -22.5821   28.5235 H   0  0  0  0  0  0  0  0  0  0  0  0
   -6.6520  -22.3665   26.9063 H   0  0  0  0  0  0  0  0  0  0  0  0
   -8.6195  -23.6952   26.6939 H   0  0  0  0  0  0  0  0  0  0  0  0
   -8.7997  -24.0556   28.2308 H   0  0  0  0  0  0  0  0  0  0  0  0
  -10.0504  -22.6103   28.9580 H   0  0  0  0  0  0  0  0  0  0  0  0
  -10.4591  -22.2001   27.5901 H   0  0  0  0  0  0  0  0  0  0  0  0
  1  2  3  0
  2  3  1  0
  3  4  1  0
  4  5  1  0
  5  6  2  0
  5  7  1  0
  7  8  1  0
  8  9  2  0
  9 10  1  0
  9 11  1  0
 11 12  1  0
 12 13  2  0
 13 14  1  0
 14 15  2  0
 15 16  1  0
 16 17  2  0
  3 18  1  0
 18 19  1  0
 19 20  1  0
 20 21  1  0
 17  8  1  0
 21 18  1  0
 17 12  1  0
  1 22  1  0
  3 23  1  0
  4 24  1  0
  7 25  1  0
  7 26  1  0
 10 27  1  0
 10 28  1  0
 10 29  1  0
 11 30  1  0
 13 31  1  0
 14 32  1  0
 15 33  1  0
 16 34  1  0
 18 35  1  0
 19 36  1  0
 19 37  1  0
 20 38  1  0
 20 39  1  0
 21 40  1  0
 21 41  1  0
M  END
>  <Energy>  (377) 
2487.4943306718283

>  <compound_id>  (377) 
46290

>  <target_id>  (377) 
1

>  <reference_id>  (377) 
40

>  <inspiration_ids>  (377) 
[40, 3]

>  <energy_score>  (377) 
2436.499491900158

>  <distance_score>  (377) 
5.654319892006459

>  <path>  (377) 
/opt/xchem-fragalysis-2/maxwin/BulkDock/SCRATCH/511025/C46290-P40/C46290-P40.minimised.mol

>  <scratch_subdir>  (377) 
/opt/xchem-fragalysis-2/maxwin/BulkDock/SCRATCH/511025/C46290-P40

>  <fragmenstein_runtime>  (377) 
26.553343772888184

>  <fragmenstein_outcome>  (377) 
too moved

>  <fragmenstein_mode>  (377) 
expansion

>  <fragmenstein_error>  (377) 


$$$$
C46290-P3
     RDKit          3D

 41 43  0  0  0  0  0  0  0  0999 V2000
   -8.9879  -18.7560   27.2824 C   0  0  0  0  0  0  0  0  0  0  0  0
   -7.5174  -18.5671   27.1147 C   0  0  0  0  0  0  0  0  0  0  0  0
   -5.6102  -18.4147   26.7031 C   0  0  0  0  0  0  0  0  0  0  0  0
   -4.8239  -16.4298   26.4713 N   0  0  0  0  0  0  0  0  0  0  0  0
   -3.7451  -15.7608   26.1581 C   0  0  0  0  0  0  0  0  0  0  0  0
   -2.6736  -16.9811   25.6473 O   0  0  0  0  0  0  0  0  0  0  0  0
   -3.4460  -13.7503   26.4452 C   0  0  0  0  0  0  0  0  0  0  0  0
   -2.7926  -12.4383   27.9730 C   0  0  0  0  0  0  0  0  0  0  0  0
   -1.4855  -11.7111   27.9349 C   0  0  0  0  0  0  0  0  0  0  0  0
   -1.4350   -9.6978   28.4221 C   0  0  0  0  0  0  0  0  0  0  0  0
   -0.3008  -12.3388   28.2432 N   0  0  0  0  0  0  0  0  0  0  0  0
   -0.3249  -11.4490   29.1990 C   0  0  0  0  0  0  0  0  0  0  0  0
    0.6361  -10.0793   29.7631 C   0  0  0  0  0  0  0  0  0  0  0  0
    0.1627   -9.1874   30.6322 C   0  0  0  0  0  0  0  0  0  0  0  0
   -1.1754   -9.5052   30.6939 C   0  0  0  0  0  0  0  0  0  0  0  0
   -1.9408  -10.9475   30.7100 C   0  0  0  0  0  0  0  0  0  0  0  0
   -1.7592  -12.0752   29.5610 C   0  0  0  0  0  0  0  0  0  0  0  0
   -6.8554  -20.0531   27.5649 C   0  0  0  0  0  0  0  0  0  0  0  0
   -8.3618  -20.8746   28.7675 C   0  0  0  0  0  0  0  0  0  0  0  0
   -9.5461  -21.2886   28.1264 C   0  0  0  0  0  0  0  0  0  0  0  0
   -8.3305  -21.5716   27.2723 C   0  0  0  0  0  0  0  0  0  0  0  0
   -9.9078  -19.0301   27.7535 H   0  0  0  0  0  0  0  0  0  0  0  0
   -6.1024  -17.8859   25.9333 H   0  0  0  0  0  0  0  0  0  0  0  0
   -5.6999  -16.5400   26.7131 H   0  0  0  0  0  0  0  0  0  0  0  0
   -2.7861  -13.2748   25.6997 H   0  0  0  0  0  0  0  0  0  0  0  0
   -4.3427  -13.6578   27.0291 H   0  0  0  0  0  0  0  0  0  0  0  0
   -2.4075   -9.4130   27.8299 H   0  0  0  0  0  0  0  0  0  0  0  0
   -1.3821   -8.7000   27.8573 H   0  0  0  0  0  0  0  0  0  0  0  0
   -0.4053   -9.5040   28.2756 H   0  0  0  0  0  0  0  0  0  0  0  0
    0.4354  -12.7316   27.6763 H   0  0  0  0  0  0  0  0  0  0  0  0
    1.6832   -9.9672   29.4999 H   0  0  0  0  0  0  0  0  0  0  0  0
    0.6588   -8.3744   31.1196 H   0  0  0  0  0  0  0  0  0  0  0  0
   -1.7772   -8.6526   30.9358 H   0  0  0  0  0  0  0  0  0  0  0  0
   -2.8474  -10.9745   31.3136 H   0  0  0  0  0  0  0  0  0  0  0  0
   -5.8878  -20.5951   27.6867 H   0  0  0  0  0  0  0  0  0  0  0  0
   -8.9449  -21.4173   29.6619 H   0  0  0  0  0  0  0  0  0  0  0  0
   -8.0021  -21.6556   29.5771 H   0  0  0  0  0  0  0  0  0  0  0  0
  -10.4130  -20.6644   27.9046 H   0  0  0  0  0  0  0  0  0  0  0  0
  -10.0611  -22.2042   28.5063 H   0  0  0  0  0  0  0  0  0  0  0  0
   -9.3968  -21.8775   26.7747 H   0  0  0  0  0  0  0  0  0  0  0  0
   -8.4611  -22.3786   26.4647 H   0  0  0  0  0  0  0  0  0  0  0  0
  1  2  3  0
  2  3  1  0
  3  4  1  0
  4  5  1  0
  5  6  2  0
  5  7  1  0
  7  8  1  0
  8  9  2  0
  9 10  1  0
  9 11  1  0
 11 12  1  0
 12 13  2  0
 13 14  1  0
 14 15  2  0
 15 16  1  0
 16 17  2  0
  3 18  1  0
 18 19  1  0
 19 20  1  0
 20 21  1  0
 17  8  1  0
 21 18  1  0
 17 12  1  0
  1 22  1  0
  3 23  1  0
  4 24  1  0
  7 25  1  0
  7 26  1  0
 10 27  1  0
 10 28  1  0
 10 29  1  0
 11 30  1  0
 13 31  1  0
 14 32  1  0
 15 33  1  0
 16 34  1  0
 18 35  1  0
 19 36  1  0
 19 37  1  0
 20 38  1  0
 20 39  1  0
 21 40  1  0
 21 41  1  0
M  END
>  <Energy>  (378) 
2091.9957517894354

>  <compound_id>  (378) 
46290

>  <target_id>  (378) 
1

>  <reference_id>  (378) 
3

>  <inspiration_ids>  (378) 
[40, 3]

>  <energy_score>  (378) 
2041.0009130177375

>  <distance_score>  (378) 
6.827049452991603

>  <path>  (378) 
/opt/xchem-fragalysis-2/maxwin/BulkDock/SCRATCH/511025/C46290-P3/C46290-P3.minimised.mol

>  <scratch_subdir>  (378) 
/opt/xchem-fragalysis-2/maxwin/BulkDock/SCRATCH/511025/C46290-P3

>  <fragmenstein_runtime>  (378) 
30.600292205810547

>  <fragmenstein_outcome>  (378) 
too moved

>  <fragmenstein_mode>  (378) 
expansion

>  <fragmenstein_error>  (378) 


$$$$
C46291-P40
     RDKit          3D

 38 40  0  0  0  0  0  0  0  0999 V2000
   -9.2943  -15.9874   26.4699 C   0  0  0  0  0  0  0  0  0  0  0  0
   -8.9224  -16.9118   27.1595 C   0  0  0  0  0  0  0  0  0  0  0  0
   -8.3448  -18.0982   28.0809 C   0  0  0  0  0  0  0  0  0  0  0  0
   -6.5352  -17.5565   28.7452 N   0  0  0  0  0  0  0  0  0  0  0  0
   -5.7920  -15.8314   29.2490 C   0  0  0  0  0  0  0  0  0  0  0  0
   -6.4655  -14.8265   29.0663 O   0  0  0  0  0  0  0  0  0  0  0  0
   -4.0456  -15.2895   30.2295 C   0  0  0  0  0  0  0  0  0  0  0  0
   -2.8801  -13.7782   29.3685 C   0  0  0  0  0  0  0  0  0  0  0  0
   -3.5460  -12.2413   29.0333 C   0  0  0  0  0  0  0  0  0  0  0  0
   -2.6797  -11.7601   28.0355 N   0  0  0  0  0  0  0  0  0  0  0  0
   -1.8843  -10.9924   28.8367 C   0  0  0  0  0  0  0  0  0  0  0  0
   -0.7934   -9.6957   29.0388 C   0  0  0  0  0  0  0  0  0  0  0  0
   -0.6128   -9.0588   30.2216 C   0  0  0  0  0  0  0  0  0  0  0  0
   -0.2239   -7.4209   30.4201 Cl  0  0  0  0  0  0  0  0  0  0  0  0
   -1.0715   -9.8750   31.1405 C   0  0  0  0  0  0  0  0  0  0  0  0
   -1.0301  -11.2968   30.7246 C   0  0  0  0  0  0  0  0  0  0  0  0
   -2.1664  -11.9557   29.7703 C   0  0  0  0  0  0  0  0  0  0  0  0
   -9.2955  -19.9853   28.1540 C   0  0  0  0  0  0  0  0  0  0  0  0
  -10.6919  -20.8683   29.3952 C   0  0  0  0  0  0  0  0  0  0  0  0
  -10.6599  -22.1843   28.6361 C   0  0  0  0  0  0  0  0  0  0  0  0
  -10.7737  -21.3169   27.4812 C   0  0  0  0  0  0  0  0  0  0  0  0
   -9.5865  -15.1692   25.8536 H   0  0  0  0  0  0  0  0  0  0  0  0
   -8.7078  -17.8547   28.9922 H   0  0  0  0  0  0  0  0  0  0  0  0
   -5.9491  -18.2314   29.0158 H   0  0  0  0  0  0  0  0  0  0  0  0
   -3.6057  -15.7614   31.1007 H   0  0  0  0  0  0  0  0  0  0  0  0
   -4.7121  -14.6982   30.8670 H   0  0  0  0  0  0  0  0  0  0  0  0
   -4.6122  -12.0598   28.9196 H   0  0  0  0  0  0  0  0  0  0  0  0
   -2.8372  -11.7707   27.0312 H   0  0  0  0  0  0  0  0  0  0  0  0
   -0.6208   -8.9108   28.3306 H   0  0  0  0  0  0  0  0  0  0  0  0
   -1.1056   -9.5239   32.1614 H   0  0  0  0  0  0  0  0  0  0  0  0
   -0.0749  -11.7989   30.6514 H   0  0  0  0  0  0  0  0  0  0  0  0
   -8.3217  -20.6889   27.8110 H   0  0  0  0  0  0  0  0  0  0  0  0
  -11.7601  -20.5565   29.3561 H   0  0  0  0  0  0  0  0  0  0  0  0
  -10.6437  -21.0410   30.4703 H   0  0  0  0  0  0  0  0  0  0  0  0
  -11.5460  -22.7999   28.7691 H   0  0  0  0  0  0  0  0  0  0  0  0
   -9.8282  -22.8486   28.4583 H   0  0  0  0  0  0  0  0  0  0  0  0
  -10.9751  -22.0237   26.6824 H   0  0  0  0  0  0  0  0  0  0  0  0
  -11.8655  -21.0582   27.4460 H   0  0  0  0  0  0  0  0  0  0  0  0
  1  2  3  0
  2  3  1  0
  3  4  1  0
  4  5  1  0
  5  6  2  0
  5  7  1  0
  7  8  1  0
  8  9  2  0
  9 10  1  0
 10 11  1  0
 11 12  2  0
 12 13  1  0
 13 14  1  0
 13 15  2  0
 15 16  1  0
 16 17  2  0
  3 18  1  0
 18 19  1  0
 19 20  1  0
 20 21  1  0
 17  8  1  0
 21 18  1  0
 17 11  1  0
  1 22  1  0
  3 23  1  0
  4 24  1  0
  7 25  1  0
  7 26  1  0
  9 27  1  0
 10 28  1  0
 12 29  1  0
 15 30  1  0
 16 31  1  0
 18 32  1  0
 19 33  1  0
 19 34  1  0
 20 35  1  0
 20 36  1  0
 21 37  1  0
 21 38  1  0
M  END
>  <Energy>  (379) 
1108.5378008015173

>  <compound_id>  (379) 
46291

>  <target_id>  (379) 
1

>  <reference_id>  (379) 
40

>  <inspiration_ids>  (379) 
[40, 3]

>  <energy_score>  (379) 
1050.7449493742533

>  <distance_score>  (379) 
6.133342080572152

>  <path>  (379) 
/opt/xchem-fragalysis-2/maxwin/BulkDock/SCRATCH/511025/C46291-P40/C46291-P40.minimised.mol

>  <scratch_subdir>  (379) 
/opt/xchem-fragalysis-2/maxwin/BulkDock/SCRATCH/511025/C46291-P40

>  <fragmenstein_runtime>  (379) 
20.301342487335205

>  <fragmenstein_outcome>  (379) 
too moved

>  <fragmenstein_mode>  (379) 
expansion

>  <fragmenstein_error>  (379) 


$$$$
C46291-P3
     RDKit          3D

 38 40  0  0  0  0  0  0  0  0999 V2000
   -7.9141  -22.6976   31.0283 C   0  0  0  0  0  0  0  0  0  0  0  0
   -7.1190  -22.4181   30.1429 C   0  0  0  0  0  0  0  0  0  0  0  0
   -6.0067  -21.8483   28.4896 C   0  0  0  0  0  0  0  0  0  0  0  0
   -4.2901  -20.9056   28.2898 N   0  0  0  0  0  0  0  0  0  0  0  0
   -3.1989  -19.9721   29.5729 C   0  0  0  0  0  0  0  0  0  0  0  0
   -3.4621  -19.9678   30.7742 O   0  0  0  0  0  0  0  0  0  0  0  0
   -1.4589  -18.6039   29.1689 C   0  0  0  0  0  0  0  0  0  0  0  0
   -0.2453  -17.0004   28.8588 C   0  0  0  0  0  0  0  0  0  0  0  0
    1.2374  -16.5675   29.3215 C   0  0  0  0  0  0  0  0  0  0  0  0
    1.6044  -15.3125   28.7055 N   0  0  0  0  0  0  0  0  0  0  0  0
    0.5611  -14.4639   28.8465 C   0  0  0  0  0  0  0  0  0  0  0  0
    0.3379  -12.9592   28.6545 C   0  0  0  0  0  0  0  0  0  0  0  0
   -0.9262  -12.1141   29.0863 C   0  0  0  0  0  0  0  0  0  0  0  0
   -0.6604  -10.2846   29.3172 Cl  0  0  0  0  0  0  0  0  0  0  0  0
   -2.1030  -12.8452   29.8312 C   0  0  0  0  0  0  0  0  0  0  0  0
   -1.8173  -14.5186   30.1950 C   0  0  0  0  0  0  0  0  0  0  0  0
   -0.3992  -15.3330   29.5303 C   0  0  0  0  0  0  0  0  0  0  0  0
   -7.9259  -21.1253   27.9819 C   0  0  0  0  0  0  0  0  0  0  0  0
   -9.5543  -22.1356   27.4626 C   0  0  0  0  0  0  0  0  0  0  0  0
  -10.6153  -21.1173   27.6861 C   0  0  0  0  0  0  0  0  0  0  0  0
   -9.6592  -20.3671   28.5284 C   0  0  0  0  0  0  0  0  0  0  0  0
   -8.5744  -22.9478   31.8276 H   0  0  0  0  0  0  0  0  0  0  0  0
   -5.4941  -22.7602   28.0636 H   0  0  0  0  0  0  0  0  0  0  0  0
   -3.8569  -20.8514   27.3894 H   0  0  0  0  0  0  0  0  0  0  0  0
   -0.6925  -19.1966   28.5820 H   0  0  0  0  0  0  0  0  0  0  0  0
   -2.0613  -17.8381   28.7416 H   0  0  0  0  0  0  0  0  0  0  0  0
    2.0744  -17.2160   29.5857 H   0  0  0  0  0  0  0  0  0  0  0  0
    2.5590  -15.0421   28.5203 H   0  0  0  0  0  0  0  0  0  0  0  0
    1.2173  -12.5023   28.3199 H   0  0  0  0  0  0  0  0  0  0  0  0
   -2.8631  -12.3648   30.4126 H   0  0  0  0  0  0  0  0  0  0  0  0
   -2.3263  -15.1357   30.8961 H   0  0  0  0  0  0  0  0  0  0  0  0
   -8.1441  -21.2139   29.0211 H   0  0  0  0  0  0  0  0  0  0  0  0
   -9.8823  -22.8805   28.2109 H   0  0  0  0  0  0  0  0  0  0  0  0
   -9.6466  -22.6054   26.4739 H   0  0  0  0  0  0  0  0  0  0  0  0
  -11.4865  -21.5144   28.2330 H   0  0  0  0  0  0  0  0  0  0  0  0
  -11.1000  -20.5663   26.8830 H   0  0  0  0  0  0  0  0  0  0  0  0
   -9.8642  -19.3034   28.4684 H   0  0  0  0  0  0  0  0  0  0  0  0
  -10.0785  -20.7033   29.5028 H   0  0  0  0  0  0  0  0  0  0  0  0
  1  2  3  0
  2  3  1  0
  3  4  1  0
  4  5  1  0
  5  6  2  0
  5  7  1  0
  7  8  1  0
  8  9  2  0
  9 10  1  0
 10 11  1  0
 11 12  2  0
 12 13  1  0
 13 14  1  0
 13 15  2  0
 15 16  1  0
 16 17  2  0
  3 18  1  0
 18 19  1  0
 19 20  1  0
 20 21  1  0
 17  8  1  0
 21 18  1  0
 17 11  1  0
  1 22  1  0
  3 23  1  0
  4 24  1  0
  7 25  1  0
  7 26  1  0
  9 27  1  0
 10 28  1  0
 12 29  1  0
 15 30  1  0
 16 31  1  0
 18 32  1  0
 19 33  1  0
 19 34  1  0
 20 35  1  0
 20 36  1  0
 21 37  1  0
 21 38  1  0
M  END
>  <Energy>  (380) 
1114.9375299566334

>  <compound_id>  (380) 
46291

>  <target_id>  (380) 
1

>  <reference_id>  (380) 
3

>  <inspiration_ids>  (380) 
[40, 3]

>  <energy_score>  (380) 
1057.1446785293695

>  <distance_score>  (380) 
7.712307677149222

>  <path>  (380) 
/opt/xchem-fragalysis-2/maxwin/BulkDock/SCRATCH/511025/C46291-P3/C46291-P3.minimised.mol

>  <scratch_subdir>  (380) 
/opt/xchem-fragalysis-2/maxwin/BulkDock/SCRATCH/511025/C46291-P3

>  <fragmenstein_runtime>  (380) 
17.70597791671753

>  <fragmenstein_outcome>  (380) 
too moved

>  <fragmenstein_mode>  (380) 
expansion

>  <fragmenstein_error>  (380) 


$$$$
C46292-P40
     RDKit          3D

 48 50  0  0  0  0  0  0  0  0999 V2000
  -11.7633  -22.0264   28.7407 C   0  0  0  0  0  0  0  0  0  0  0  0
  -11.9114  -21.0046   29.9637 C   0  0  0  0  0  0  0  0  0  0  0  0
  -11.3062  -21.7063   31.0814 C   0  0  0  0  0  0  0  0  0  0  0  0
   -9.8089  -21.5072   32.2790 C   0  0  0  0  0  0  0  0  0  0  0  0
   -8.7141  -20.7339   33.8684 C   0  0  0  0  0  0  0  0  0  0  0  0
   -7.9023  -21.4758   34.9793 C   0  0  0  0  0  0  0  0  0  0  0  0
   -7.4168  -20.3178   35.8132 C   0  0  0  0  0  0  0  0  0  0  0  0
   -8.5813  -19.3407   35.8554 C   0  0  0  0  0  0  0  0  0  0  0  0
   -8.9814  -19.2717   34.3982 C   0  0  0  0  0  0  0  0  0  0  0  0
  -11.0145  -20.1387   29.4226 N   0  0  0  0  0  0  0  0  0  0  0  0
  -11.1411  -18.3650   29.0416 C   0  0  0  0  0  0  0  0  0  0  0  0
  -12.0129  -17.5754   29.2812 O   0  0  0  0  0  0  0  0  0  0  0  0
   -9.3769  -18.1549   27.9129 C   0  0  0  0  0  0  0  0  0  0  0  0
   -8.8261  -16.6827   27.4322 C   0  0  0  0  0  0  0  0  0  0  0  0
   -7.7361  -16.3270   28.0547 C   0  0  0  0  0  0  0  0  0  0  0  0
   -7.7986  -14.9789   28.3153 N   0  0  0  0  0  0  0  0  0  0  0  0
   -8.5420  -14.3542   27.4552 C   0  0  0  0  0  0  0  0  0  0  0  0
   -7.7499  -13.3416   27.1241 C   0  0  0  0  0  0  0  0  0  0  0  0
   -7.0798  -13.7428   26.0915 C   0  0  0  0  0  0  0  0  0  0  0  0
   -7.6589  -14.8186   25.3128 C   0  0  0  0  0  0  0  0  0  0  0  0
   -8.9491  -15.3690   25.4864 C   0  0  0  0  0  0  0  0  0  0  0  0
   -9.1893  -15.4185   26.7764 C   0  0  0  0  0  0  0  0  0  0  0  0
  -12.1756  -22.9963   28.8768 H   0  0  0  0  0  0  0  0  0  0  0  0
  -10.7189  -22.2690   28.4985 H   0  0  0  0  0  0  0  0  0  0  0  0
  -12.1973  -21.6193   27.8231 H   0  0  0  0  0  0  0  0  0  0  0  0
  -12.9497  -20.7172   29.9243 H   0  0  0  0  0  0  0  0  0  0  0  0
  -12.2244  -21.4307   31.5620 H   0  0  0  0  0  0  0  0  0  0  0  0
  -11.4064  -22.7651   31.0518 H   0  0  0  0  0  0  0  0  0  0  0  0
  -10.0965  -22.5830   32.4834 H   0  0  0  0  0  0  0  0  0  0  0  0
  -10.2268  -20.4505   32.1273 H   0  0  0  0  0  0  0  0  0  0  0  0
   -7.6594  -20.6303   33.4564 H   0  0  0  0  0  0  0  0  0  0  0  0
   -8.4849  -22.0850   35.6176 H   0  0  0  0  0  0  0  0  0  0  0  0
   -7.0741  -22.0885   34.6001 H   0  0  0  0  0  0  0  0  0  0  0  0
   -6.6177  -19.8970   35.2387 H   0  0  0  0  0  0  0  0  0  0  0  0
   -6.9716  -20.5909   36.7584 H   0  0  0  0  0  0  0  0  0  0  0  0
   -9.4452  -19.6987   36.4149 H   0  0  0  0  0  0  0  0  0  0  0  0
   -8.3152  -18.3716   36.2834 H   0  0  0  0  0  0  0  0  0  0  0  0
   -9.9496  -18.7961   34.2982 H   0  0  0  0  0  0  0  0  0  0  0  0
   -8.3221  -18.6000   33.8507 H   0  0  0  0  0  0  0  0  0  0  0  0
  -10.2138  -20.5079   29.0159 H   0  0  0  0  0  0  0  0  0  0  0  0
   -8.5182  -18.6460   28.2882 H   0  0  0  0  0  0  0  0  0  0  0  0
   -9.7617  -17.8688   26.9689 H   0  0  0  0  0  0  0  0  0  0  0  0
   -6.9595  -16.9708   28.3998 H   0  0  0  0  0  0  0  0  0  0  0  0
   -7.0144  -14.4964   28.7507 H   0  0  0  0  0  0  0  0  0  0  0  0
   -7.0003  -12.8863   27.7477 H   0  0  0  0  0  0  0  0  0  0  0  0
   -6.4368  -12.9379   25.7478 H   0  0  0  0  0  0  0  0  0  0  0  0
   -7.1173  -14.9238   24.3818 H   0  0  0  0  0  0  0  0  0  0  0  0
   -9.5219  -16.0074   24.8392 H   0  0  0  0  0  0  0  0  0  0  0  0
  1  2  1  0
  2  3  1  0
  3  4  1  0
  4  5  1  0
  5  6  1  0
  6  7  1  0
  7  8  1  0
  8  9  1  0
  2 10  1  0
 10 11  1  0
 11 12  2  0
 11 13  1  0
 13 14  1  0
 14 15  2  0
 15 16  1  0
 16 17  1  0
 17 18  2  0
 18 19  1  0
 19 20  2  0
 20 21  1  0
 21 22  2  0
  9  5  1  0
 22 14  1  0
 22 17  1  0
  1 23  1  0
  1 24  1  0
  1 25  1  0
  2 26  1  0
  3 27  1  0
  3 28  1  0
  4 29  1  0
  4 30  1  0
  5 31  1  0
  6 32  1  0
  6 33  1  0
  7 34  1  0
  7 35  1  0
  8 36  1  0
  8 37  1  0
  9 38  1  0
  9 39  1  0
 10 40  1  0
 13 41  1  0
 13 42  1  0
 15 43  1  0
 16 44  1  0
 18 45  1  0
 19 46  1  0
 20 47  1  0
 21 48  1  0
M  END
>  <Energy>  (381) 
686.87668070973075

>  <compound_id>  (381) 
46292

>  <target_id>  (381) 
1

>  <reference_id>  (381) 
40

>  <inspiration_ids>  (381) 
[40, 3]

>  <energy_score>  (381) 
632.1150240270915

>  <distance_score>  (381) 
9.190586922398978

>  <path>  (381) 
/opt/xchem-fragalysis-2/maxwin/BulkDock/SCRATCH/511025/C46292-P40/C46292-P40.minimised.mol

>  <scratch_subdir>  (381) 
/opt/xchem-fragalysis-2/maxwin/BulkDock/SCRATCH/511025/C46292-P40

>  <fragmenstein_runtime>  (381) 
58.273622274398804

>  <fragmenstein_outcome>  (381) 
too moved

>  <fragmenstein_mode>  (381) 
expansion

>  <fragmenstein_error>  (381) 


$$$$
C46292-P3
     RDKit          3D

 48 50  0  0  0  0  0  0  0  0999 V2000
  -10.9145  -18.5778   29.8117 C   0  0  0  0  0  0  0  0  0  0  0  0
  -11.9066  -18.1127   28.6563 C   0  0  0  0  0  0  0  0  0  0  0  0
  -11.7134  -19.6124   27.7262 C   0  0  0  0  0  0  0  0  0  0  0  0
  -11.9639  -20.9452   28.4526 C   0  0  0  0  0  0  0  0  0  0  0  0
  -10.8967  -22.0419   28.5570 C   0  0  0  0  0  0  0  0  0  0  0  0
  -11.4810  -23.4034   28.1317 C   0  0  0  0  0  0  0  0  0  0  0  0
  -11.5953  -24.2660   29.3759 C   0  0  0  0  0  0  0  0  0  0  0  0
  -10.6076  -23.7065   30.3757 C   0  0  0  0  0  0  0  0  0  0  0  0
  -10.4173  -22.2479   30.0115 C   0  0  0  0  0  0  0  0  0  0  0  0
  -12.1352  -16.2724   27.8968 N   0  0  0  0  0  0  0  0  0  0  0  0
  -11.2341  -15.3881   26.5184 C   0  0  0  0  0  0  0  0  0  0  0  0
  -10.2417  -15.7378   25.8379 O   0  0  0  0  0  0  0  0  0  0  0  0
  -11.8830  -13.6273   26.0363 C   0  0  0  0  0  0  0  0  0  0  0  0
  -10.7457  -12.5867   25.3993 C   0  0  0  0  0  0  0  0  0  0  0  0
  -10.0129  -12.7534   24.2364 C   0  0  0  0  0  0  0  0  0  0  0  0
   -9.0754  -11.7503   24.1422 N   0  0  0  0  0  0  0  0  0  0  0  0
   -9.1175  -10.9303   25.2426 C   0  0  0  0  0  0  0  0  0  0  0  0
   -8.2974   -9.8486   25.5918 C   0  0  0  0  0  0  0  0  0  0  0  0
   -8.4961   -9.2254   26.8255 C   0  0  0  0  0  0  0  0  0  0  0  0
   -9.5179   -9.6471   27.6626 C   0  0  0  0  0  0  0  0  0  0  0  0
  -10.3654  -10.7003   27.2739 C   0  0  0  0  0  0  0  0  0  0  0  0
  -10.1673  -11.3794   26.0412 C   0  0  0  0  0  0  0  0  0  0  0  0
  -11.4408  -19.2687   30.4789 H   0  0  0  0  0  0  0  0  0  0  0  0
  -10.4211  -17.9277   30.5206 H   0  0  0  0  0  0  0  0  0  0  0  0
  -10.1214  -19.1355   29.3385 H   0  0  0  0  0  0  0  0  0  0  0  0
  -12.8899  -18.2564   29.0637 H   0  0  0  0  0  0  0  0  0  0  0  0
  -10.6767  -19.6687   27.4086 H   0  0  0  0  0  0  0  0  0  0  0  0
  -12.3204  -19.6389   26.8240 H   0  0  0  0  0  0  0  0  0  0  0  0
  -12.7861  -21.3702   27.8741 H   0  0  0  0  0  0  0  0  0  0  0  0
  -12.2840  -20.7476   29.4623 H   0  0  0  0  0  0  0  0  0  0  0  0
  -10.0541  -21.7912   27.9114 H   0  0  0  0  0  0  0  0  0  0  0  0
  -10.8360  -23.8704   27.3867 H   0  0  0  0  0  0  0  0  0  0  0  0
  -12.4542  -23.3395   27.6329 H   0  0  0  0  0  0  0  0  0  0  0  0
  -12.6191  -24.2143   29.7472 H   0  0  0  0  0  0  0  0  0  0  0  0
  -11.4019  -25.3218   29.1601 H   0  0  0  0  0  0  0  0  0  0  0  0
  -10.9516  -23.8257   31.4015 H   0  0  0  0  0  0  0  0  0  0  0  0
   -9.6500  -24.2304   30.3365 H   0  0  0  0  0  0  0  0  0  0  0  0
  -10.9423  -21.6163   30.7344 H   0  0  0  0  0  0  0  0  0  0  0  0
   -9.3578  -22.0101   30.1082 H   0  0  0  0  0  0  0  0  0  0  0  0
  -12.9442  -15.7441   28.1720 H   0  0  0  0  0  0  0  0  0  0  0  0
  -12.3650  -13.1680   26.9125 H   0  0  0  0  0  0  0  0  0  0  0  0
  -12.6376  -13.6392   25.2383 H   0  0  0  0  0  0  0  0  0  0  0  0
  -10.0507  -13.5365   23.4893 H   0  0  0  0  0  0  0  0  0  0  0  0
   -8.4013  -11.6596   23.3975 H   0  0  0  0  0  0  0  0  0  0  0  0
   -7.5067   -9.5275   24.9275 H   0  0  0  0  0  0  0  0  0  0  0  0
   -7.8473   -8.4080   27.1225 H   0  0  0  0  0  0  0  0  0  0  0  0
   -9.6669   -9.1611   28.6225 H   0  0  0  0  0  0  0  0  0  0  0  0
  -11.1526  -11.0256   27.9471 H   0  0  0  0  0  0  0  0  0  0  0  0
  1  2  1  0
  2  3  1  0
  3  4  1  0
  4  5  1  0
  5  6  1  0
  6  7  1  0
  7  8  1  0
  8  9  1  0
  2 10  1  0
 10 11  1  0
 11 12  2  0
 11 13  1  0
 13 14  1  0
 14 15  2  0
 15 16  1  0
 16 17  1  0
 17 18  2  0
 18 19  1  0
 19 20  2  0
 20 21  1  0
 21 22  2  0
  9  5  1  0
 22 14  1  0
 22 17  1  0
  1 23  1  0
  1 24  1  0
  1 25  1  0
  2 26  1  0
  3 27  1  0
  3 28  1  0
  4 29  1  0
  4 30  1  0
  5 31  1  0
  6 32  1  0
  6 33  1  0
  7 34  1  0
  7 35  1  0
  8 36  1  0
  8 37  1  0
  9 38  1  0
  9 39  1  0
 10 40  1  0
 13 41  1  0
 13 42  1  0
 15 43  1  0
 16 44  1  0
 18 45  1  0
 19 46  1  0
 20 47  1  0
 21 48  1  0
M  END
>  <Energy>  (382) 
294.96954050878611

>  <compound_id>  (382) 
46292

>  <target_id>  (382) 
1

>  <reference_id>  (382) 
3

>  <inspiration_ids>  (382) 
[40, 3]

>  <energy_score>  (382) 
240.20788382615058

>  <distance_score>  (382) 
8.852221462349148

>  <path>  (382) 
/opt/xchem-fragalysis-2/maxwin/BulkDock/SCRATCH/511025/C46292-P3/C46292-P3.minimised.mol

>  <scratch_subdir>  (382) 
/opt/xchem-fragalysis-2/maxwin/BulkDock/SCRATCH/511025/C46292-P3

>  <fragmenstein_runtime>  (382) 
61.53730845451355

>  <fragmenstein_outcome>  (382) 
too moved

>  <fragmenstein_mode>  (382) 
expansion

>  <fragmenstein_error>  (382) 


$$$$
C46295-P40
     RDKit          3D

 47 49  0  0  0  0  0  0  0  0999 V2000
   -3.4610  -10.3984   36.2878 C   0  0  0  0  0  0  0  0  0  0  0  0
   -4.9122  -11.0346   35.1944 C   0  0  0  0  0  0  0  0  0  0  0  0
   -4.7459  -13.2131   34.3956 C   0  0  0  0  0  0  0  0  0  0  0  0
   -3.8774  -14.7203   35.3893 N   0  0  0  0  0  0  0  0  0  0  0  0
   -2.2168  -15.3310   35.3499 C   0  0  0  0  0  0  0  0  0  0  0  0
   -1.2515  -14.9913   34.6292 O   0  0  0  0  0  0  0  0  0  0  0  0
   -1.9423  -16.4782   36.4318 C   0  0  0  0  0  0  0  0  0  0  0  0
   -0.9369  -17.5503   35.9086 C   0  0  0  0  0  0  0  0  0  0  0  0
   -1.1770  -18.8946   36.5983 C   0  0  0  0  0  0  0  0  0  0  0  0
   -0.9682  -18.8283   38.4013 S   0  0  0  0  0  0  0  0  0  0  0  0
   -1.6700  -17.1888   38.7982 C   0  0  0  0  0  0  0  0  0  0  0  0
   -1.3252  -16.0970   37.7807 C   0  0  0  0  0  0  0  0  0  0  0  0
   -4.0340   -9.3608   34.7166 N   0  0  0  0  0  0  0  0  0  0  0  0
   -2.8508   -8.9887   33.5174 C   0  0  0  0  0  0  0  0  0  0  0  0
   -2.3768   -9.6849   32.6410 O   0  0  0  0  0  0  0  0  0  0  0  0
   -2.1236   -7.6343   33.5408 C   0  0  0  0  0  0  0  0  0  0  0  0
   -1.5896   -7.0401   34.6765 C   0  0  0  0  0  0  0  0  0  0  0  0
   -0.6349   -5.9994   34.5727 C   0  0  0  0  0  0  0  0  0  0  0  0
   -0.1591   -5.6301   33.3003 C   0  0  0  0  0  0  0  0  0  0  0  0
    0.7652   -4.6852   32.9103 N   0  0  0  0  0  0  0  0  0  0  0  0
    0.9509   -4.7310   31.5498 C   0  0  0  0  0  0  0  0  0  0  0  0
    0.1196   -5.7031   31.0457 C   0  0  0  0  0  0  0  0  0  0  0  0
   -0.5920   -6.2604   32.1422 C   0  0  0  0  0  0  0  0  0  0  0  0
   -1.5589   -7.2670   32.2797 C   0  0  0  0  0  0  0  0  0  0  0  0
   -2.9114  -11.0322   36.9956 H   0  0  0  0  0  0  0  0  0  0  0  0
   -2.6167   -9.7996   35.9435 H   0  0  0  0  0  0  0  0  0  0  0  0
   -4.0686   -9.7109   36.8514 H   0  0  0  0  0  0  0  0  0  0  0  0
   -5.8173  -10.7607   35.7548 H   0  0  0  0  0  0  0  0  0  0  0  0
   -5.5256  -13.4893   33.5947 H   0  0  0  0  0  0  0  0  0  0  0  0
   -4.2116  -13.2846   33.4597 H   0  0  0  0  0  0  0  0  0  0  0  0
   -4.4205  -15.2599   36.0216 H   0  0  0  0  0  0  0  0  0  0  0  0
   -2.9116  -16.9486   36.6220 H   0  0  0  0  0  0  0  0  0  0  0  0
    0.1014  -17.2326   36.0823 H   0  0  0  0  0  0  0  0  0  0  0  0
   -0.9581  -17.6640   34.8216 H   0  0  0  0  0  0  0  0  0  0  0  0
   -0.4745  -19.6373   36.2065 H   0  0  0  0  0  0  0  0  0  0  0  0
   -2.1827  -19.2789   36.4148 H   0  0  0  0  0  0  0  0  0  0  0  0
   -1.2813  -16.9005   39.7805 H   0  0  0  0  0  0  0  0  0  0  0  0
   -2.7539  -17.2998   38.9080 H   0  0  0  0  0  0  0  0  0  0  0  0
   -1.6402  -15.1257   38.1511 H   0  0  0  0  0  0  0  0  0  0  0  0
   -0.2351  -15.9795   37.7135 H   0  0  0  0  0  0  0  0  0  0  0  0
   -4.2663   -8.5300   35.2407 H   0  0  0  0  0  0  0  0  0  0  0  0
   -1.8608   -7.4074   35.6594 H   0  0  0  0  0  0  0  0  0  0  0  0
   -0.2537   -5.5262   35.4730 H   0  0  0  0  0  0  0  0  0  0  0  0
    1.2383   -4.0550   33.5437 H   0  0  0  0  0  0  0  0  0  0  0  0
    1.6472   -4.0585   31.0665 H   0  0  0  0  0  0  0  0  0  0  0  0
    0.0248   -5.9742   30.0042 H   0  0  0  0  0  0  0  0  0  0  0  0
   -1.8658   -7.7993   31.3894 H   0  0  0  0  0  0  0  0  0  0  0  0
  1  2  1  0
  2  3  1  0
  3  4  1  0
  4  5  1  0
  5  6  2  0
  5  7  1  0
  7  8  1  0
  8  9  1  0
  9 10  1  0
 10 11  1  0
 11 12  1  0
  2 13  1  0
 13 14  1  0
 14 15  2  0
 14 16  1  0
 16 17  2  0
 17 18  1  0
 18 19  2  0
 19 20  1  0
 20 21  1  0
 21 22  2  0
 22 23  1  0
 23 24  2  0
 12  7  1  0
 24 16  1  0
 23 19  1  0
  1 25  1  0
  1 26  1  0
  1 27  1  0
  2 28  1  0
  3 29  1  0
  3 30  1  0
  4 31  1  0
  7 32  1  0
  8 33  1  0
  8 34  1  0
  9 35  1  0
  9 36  1  0
 11 37  1  0
 11 38  1  0
 12 39  1  0
 12 40  1  0
 13 41  1  0
 17 42  1  0
 18 43  1  0
 20 44  1  0
 21 45  1  0
 22 46  1  0
 24 47  1  0
M  END
>  <Energy>  (383) 
602.32254665832852

>  <compound_id>  (383) 
46295

>  <target_id>  (383) 
1

>  <reference_id>  (383) 
40

>  <inspiration_ids>  (383) 
[40, 3]

>  <energy_score>  (383) 
569.4656563172265

>  <distance_score>  (383) 
7.206636773631504

>  <path>  (383) 
/opt/xchem-fragalysis-2/maxwin/BulkDock/SCRATCH/511025/C46295-P40/C46295-P40.minimised.mol

>  <scratch_subdir>  (383) 
/opt/xchem-fragalysis-2/maxwin/BulkDock/SCRATCH/511025/C46295-P40

>  <fragmenstein_runtime>  (383) 
27.79131555557251

>  <fragmenstein_outcome>  (383) 
too moved

>  <fragmenstein_mode>  (383) 
expansion

>  <fragmenstein_error>  (383) 


$$$$
C46295-P3
     RDKit          3D

 47 49  0  0  0  0  0  0  0  0999 V2000
   -4.1278  -10.0812   34.0813 C   0  0  0  0  0  0  0  0  0  0  0  0
   -4.3305  -10.0588   32.5736 C   0  0  0  0  0  0  0  0  0  0  0  0
   -5.7193  -11.4937   32.3013 C   0  0  0  0  0  0  0  0  0  0  0  0
   -6.6402  -12.6561   32.6658 N   0  0  0  0  0  0  0  0  0  0  0  0
   -7.7028  -12.7525   33.6400 C   0  0  0  0  0  0  0  0  0  0  0  0
   -8.0799  -11.9683   34.4675 O   0  0  0  0  0  0  0  0  0  0  0  0
   -8.4873  -14.0452   33.6880 C   0  0  0  0  0  0  0  0  0  0  0  0
   -8.1493  -15.1931   32.7658 C   0  0  0  0  0  0  0  0  0  0  0  0
   -9.2775  -16.3140   32.4876 C   0  0  0  0  0  0  0  0  0  0  0  0
  -11.0353  -16.4355   33.2672 S   0  0  0  0  0  0  0  0  0  0  0  0
  -11.1309  -14.8306   34.0877 C   0  0  0  0  0  0  0  0  0  0  0  0
  -10.0090  -13.7940   33.9046 C   0  0  0  0  0  0  0  0  0  0  0  0
   -4.1971   -8.1241   32.2371 N   0  0  0  0  0  0  0  0  0  0  0  0
   -2.9887   -7.1735   31.3532 C   0  0  0  0  0  0  0  0  0  0  0  0
   -1.9461   -7.5806   30.8696 O   0  0  0  0  0  0  0  0  0  0  0  0
   -3.2012   -5.6774   30.9551 C   0  0  0  0  0  0  0  0  0  0  0  0
   -3.5759   -4.5083   31.5406 C   0  0  0  0  0  0  0  0  0  0  0  0
   -3.0913   -3.2646   31.0465 C   0  0  0  0  0  0  0  0  0  0  0  0
   -2.5325   -3.2049   29.7682 C   0  0  0  0  0  0  0  0  0  0  0  0
   -2.0526   -2.1519   29.0259 N   0  0  0  0  0  0  0  0  0  0  0  0
   -1.7176   -2.5829   27.7680 C   0  0  0  0  0  0  0  0  0  0  0  0
   -1.9564   -3.9371   27.7080 C   0  0  0  0  0  0  0  0  0  0  0  0
   -2.4696   -4.3271   28.9704 C   0  0  0  0  0  0  0  0  0  0  0  0
   -2.8441   -5.5357   29.5725 C   0  0  0  0  0  0  0  0  0  0  0  0
   -3.1541  -10.1432   34.5628 H   0  0  0  0  0  0  0  0  0  0  0  0
   -4.7023  -10.7217   34.6700 H   0  0  0  0  0  0  0  0  0  0  0  0
   -4.1411   -9.0601   34.2804 H   0  0  0  0  0  0  0  0  0  0  0  0
   -3.5224  -10.4825   31.9537 H   0  0  0  0  0  0  0  0  0  0  0  0
   -6.7262  -11.1914   31.9481 H   0  0  0  0  0  0  0  0  0  0  0  0
   -5.8010  -11.3265   33.3589 H   0  0  0  0  0  0  0  0  0  0  0  0
   -6.6593  -13.4684   32.0794 H   0  0  0  0  0  0  0  0  0  0  0  0
   -8.0832  -14.3334   34.6731 H   0  0  0  0  0  0  0  0  0  0  0  0
   -7.3154  -15.7320   33.2464 H   0  0  0  0  0  0  0  0  0  0  0  0
   -7.6000  -14.8420   31.9104 H   0  0  0  0  0  0  0  0  0  0  0  0
   -9.5758  -16.5972   31.5212 H   0  0  0  0  0  0  0  0  0  0  0  0
   -8.6727  -17.2128   32.5546 H   0  0  0  0  0  0  0  0  0  0  0  0
  -12.0872  -14.3683   33.8133 H   0  0  0  0  0  0  0  0  0  0  0  0
  -11.2487  -15.0395   35.1582 H   0  0  0  0  0  0  0  0  0  0  0  0
  -10.3299  -13.0931   33.1287 H   0  0  0  0  0  0  0  0  0  0  0  0
  -10.0551  -13.2912   34.8761 H   0  0  0  0  0  0  0  0  0  0  0  0
   -4.9824   -7.5487   32.4435 H   0  0  0  0  0  0  0  0  0  0  0  0
   -4.1044   -4.5890   32.4763 H   0  0  0  0  0  0  0  0  0  0  0  0
   -3.1597   -2.3456   31.6193 H   0  0  0  0  0  0  0  0  0  0  0  0
   -2.0266   -1.1913   29.3412 H   0  0  0  0  0  0  0  0  0  0  0  0
   -1.3117   -1.8977   27.0370 H   0  0  0  0  0  0  0  0  0  0  0  0
   -1.7267   -4.5701   26.8611 H   0  0  0  0  0  0  0  0  0  0  0  0
   -2.7433   -6.4125   28.9462 H   0  0  0  0  0  0  0  0  0  0  0  0
  1  2  1  0
  2  3  1  0
  3  4  1  0
  4  5  1  0
  5  6  2  0
  5  7  1  0
  7  8  1  0
  8  9  1  0
  9 10  1  0
 10 11  1  0
 11 12  1  0
  2 13  1  0
 13 14  1  0
 14 15  2  0
 14 16  1  0
 16 17  2  0
 17 18  1  0
 18 19  2  0
 19 20  1  0
 20 21  1  0
 21 22  2  0
 22 23  1  0
 23 24  2  0
 12  7  1  0
 24 16  1  0
 23 19  1  0
  1 25  1  0
  1 26  1  0
  1 27  1  0
  2 28  1  0
  3 29  1  0
  3 30  1  0
  4 31  1  0
  7 32  1  0
  8 33  1  0
  8 34  1  0
  9 35  1  0
  9 36  1  0
 11 37  1  0
 11 38  1  0
 12 39  1  0
 12 40  1  0
 13 41  1  0
 17 42  1  0
 18 43  1  0
 20 44  1  0
 21 45  1  0
 22 46  1  0
 24 47  1  0
M  END
>  <Energy>  (384) 
393.75592382425361

>  <compound_id>  (384) 
46295

>  <target_id>  (384) 
1

>  <reference_id>  (384) 
3

>  <inspiration_ids>  (384) 
[40, 3]

>  <energy_score>  (384) 
360.8990334831411

>  <distance_score>  (384) 
5.1488198505146485

>  <path>  (384) 
/opt/xchem-fragalysis-2/maxwin/BulkDock/SCRATCH/511025/C46295-P3/C46295-P3.minimised.mol

>  <scratch_subdir>  (384) 
/opt/xchem-fragalysis-2/maxwin/BulkDock/SCRATCH/511025/C46295-P3

>  <fragmenstein_runtime>  (384) 
34.48101353645325

>  <fragmenstein_outcome>  (384) 
too moved

>  <fragmenstein_mode>  (384) 
expansion

>  <fragmenstein_error>  (384) 


$$$$
C51852-P96
     RDKit          3D

 45 47  0  0  0  0  0  0  0  0999 V2000
  -11.1273  -21.3920   29.8481 C   0  0  0  0  0  0  0  0  0  0  0  0
  -11.2961  -22.8104   30.4180 C   0  0  0  0  0  0  0  0  0  0  0  0
  -10.0729  -23.2157   31.2619 C   0  0  0  0  0  0  0  0  0  0  0  0
  -12.5071  -22.8735   31.3590 C   0  0  0  0  0  0  0  0  0  0  0  0
  -12.7505  -23.7393   32.1874 O   0  0  0  0  0  0  0  0  0  0  0  0
  -13.3633  -21.8360   31.2336 O   0  0  0  0  0  0  0  0  0  0  0  0
  -11.4491  -23.7520   29.2964 N   0  0  0  0  0  0  0  0  0  0  0  0
  -10.5524  -23.9836   28.2858 C   0  0  0  0  0  0  0  0  0  0  0  0
  -11.0720  -25.0191   27.5511 C   0  0  0  0  0  0  0  0  0  0  0  0
  -12.2955  -25.3393   28.1757 C   0  0  0  0  0  0  0  0  0  0  0  0
  -13.1258  -26.3514   27.7977 N   0  0  0  0  0  0  0  0  0  0  0  0
  -14.5231  -26.7785   28.3535 C   0  0  0  0  0  0  0  0  0  0  0  0
  -15.1333  -26.3722   29.2691 O   0  0  0  0  0  0  0  0  0  0  0  0
  -15.0171  -27.9267   27.4812 C   0  0  0  0  0  0  0  0  0  0  0  0
  -14.4044  -29.2816   27.7658 C   0  0  0  0  0  0  0  0  0  0  0  0
  -13.4983  -29.5075   28.8238 C   0  0  0  0  0  0  0  0  0  0  0  0
  -12.9414  -30.7705   29.0429 C   0  0  0  0  0  0  0  0  0  0  0  0
  -13.3062  -31.8088   28.2076 C   0  0  0  0  0  0  0  0  0  0  0  0
  -14.2168  -31.6077   27.1696 C   0  0  0  0  0  0  0  0  0  0  0  0
  -14.7741  -30.3602   26.9418 C   0  0  0  0  0  0  0  0  0  0  0  0
  -14.4239  -32.8696   26.3924 C   0  0  0  0  0  0  0  0  0  0  0  0
  -13.8900  -33.9191   27.3784 C   0  0  0  0  0  0  0  0  0  0  0  0
  -12.8157  -33.2222   28.2258 C   0  0  0  0  0  0  0  0  0  0  0  0
  -12.5335  -24.5339   29.2069 N   0  0  0  0  0  0  0  0  0  0  0  0
  -10.3035  -21.3245   29.1326 H   0  0  0  0  0  0  0  0  0  0  0  0
  -10.9659  -20.6546   30.6421 H   0  0  0  0  0  0  0  0  0  0  0  0
  -12.0089  -21.0851   29.2854 H   0  0  0  0  0  0  0  0  0  0  0  0
   -9.1549  -23.2567   30.6671 H   0  0  0  0  0  0  0  0  0  0  0  0
   -9.9143  -22.5154   32.0901 H   0  0  0  0  0  0  0  0  0  0  0  0
  -10.2035  -24.2135   31.6993 H   0  0  0  0  0  0  0  0  0  0  0  0
  -14.1910  -22.1430   31.6705 H   0  0  0  0  0  0  0  0  0  0  0  0
   -9.6360  -23.4205   28.1878 H   0  0  0  0  0  0  0  0  0  0  0  0
  -10.6270  -25.4821   26.6835 H   0  0  0  0  0  0  0  0  0  0  0  0
  -12.9331  -26.8563   26.9403 H   0  0  0  0  0  0  0  0  0  0  0  0
  -16.1029  -27.9969   27.6256 H   0  0  0  0  0  0  0  0  0  0  0  0
  -14.8554  -27.6624   26.4286 H   0  0  0  0  0  0  0  0  0  0  0  0
  -13.2134  -28.7045   29.5027 H   0  0  0  0  0  0  0  0  0  0  0  0
  -12.2457  -30.9293   29.8597 H   0  0  0  0  0  0  0  0  0  0  0  0
  -15.4863  -30.2228   26.1329 H   0  0  0  0  0  0  0  0  0  0  0  0
  -15.4760  -33.0463   26.1523 H   0  0  0  0  0  0  0  0  0  0  0  0
  -13.8270  -32.8478   25.4748 H   0  0  0  0  0  0  0  0  0  0  0  0
  -14.7094  -34.2444   28.0346 H   0  0  0  0  0  0  0  0  0  0  0  0
  -13.5094  -34.8121   26.8728 H   0  0  0  0  0  0  0  0  0  0  0  0
  -11.8320  -33.2853   27.7492 H   0  0  0  0  0  0  0  0  0  0  0  0
  -12.7712  -33.6385   29.2360 H   0  0  0  0  0  0  0  0  0  0  0  0
  1  2  1  0
  2  3  1  0
  2  4  1  0
  4  5  2  0
  4  6  1  0
  2  7  1  0
  7  8  1  0
  8  9  2  0
  9 10  1  0
 10 11  1  0
 11 12  1  0
 12 13  2  0
 12 14  1  0
 14 15  1  0
 15 16  2  0
 16 17  1  0
 17 18  2  0
 18 19  1  0
 19 20  2  0
 19 21  1  0
 21 22  1  0
 22 23  1  0
 10 24  2  0
 24  7  1  0
 20 15  1  0
 23 18  1  0
  1 25  1  0
  1 26  1  0
  1 27  1  0
  3 28  1  0
  3 29  1  0
  3 30  1  0
  6 31  1  0
  8 32  1  0
  9 33  1  0
 11 34  1  0
 14 35  1  0
 14 36  1  0
 16 37  1  0
 17 38  1  0
 20 39  1  0
 21 40  1  0
 21 41  1  0
 22 42  1  0
 22 43  1  0
 23 44  1  0
 23 45  1  0
M  END
>  <Energy>  (385) 
28.617243307946008

>  <compound_id>  (385) 
51852

>  <target_id>  (385) 
1

>  <reference_id>  (385) 
96

>  <inspiration_ids>  (385) 
[96, 66]

>  <energy_score>  (385) 
-13.359299209523328

>  <distance_score>  (385) 
4.5812527419050735

>  <path>  (385) 
/opt/xchem-fragalysis-2/maxwin/BulkDock/SCRATCH/511025/C51852-P96/C51852-P96.minimised.mol

>  <scratch_subdir>  (385) 
/opt/xchem-fragalysis-2/maxwin/BulkDock/SCRATCH/511025/C51852-P96

>  <fragmenstein_runtime>  (385) 
11.804686546325684

>  <fragmenstein_outcome>  (385) 
too moved

>  <fragmenstein_mode>  (385) 
expansion

>  <fragmenstein_error>  (385) 


$$$$
C51852-P66
     RDKit          3D

 45 47  0  0  0  0  0  0  0  0999 V2000
  -11.1699  -21.3286   32.2597 C   0  0  0  0  0  0  0  0  0  0  0  0
  -12.1330  -22.4899   32.1338 C   0  0  0  0  0  0  0  0  0  0  0  0
  -13.5598  -21.9077   32.2367 C   0  0  0  0  0  0  0  0  0  0  0  0
  -11.9666  -23.3419   33.4084 C   0  0  0  0  0  0  0  0  0  0  0  0
  -12.4259  -22.9785   34.4935 O   0  0  0  0  0  0  0  0  0  0  0  0
  -11.2151  -24.4580   33.3392 O   0  0  0  0  0  0  0  0  0  0  0  0
  -11.7824  -23.1511   30.8471 N   0  0  0  0  0  0  0  0  0  0  0  0
  -11.7518  -22.6218   29.5708 C   0  0  0  0  0  0  0  0  0  0  0  0
  -11.4723  -23.6748   28.7169 C   0  0  0  0  0  0  0  0  0  0  0  0
  -11.3390  -24.7643   29.5763 C   0  0  0  0  0  0  0  0  0  0  0  0
  -11.6879  -26.0550   29.3918 N   0  0  0  0  0  0  0  0  0  0  0  0
  -12.5714  -26.7155   28.2937 C   0  0  0  0  0  0  0  0  0  0  0  0
  -13.0651  -26.2541   27.3416 O   0  0  0  0  0  0  0  0  0  0  0  0
  -12.7871  -28.1673   28.7623 C   0  0  0  0  0  0  0  0  0  0  0  0
  -14.2090  -28.7115   28.7246 C   0  0  0  0  0  0  0  0  0  0  0  0
  -14.5774  -29.6743   29.6979 C   0  0  0  0  0  0  0  0  0  0  0  0
  -15.8586  -30.2321   29.7304 C   0  0  0  0  0  0  0  0  0  0  0  0
  -16.7655  -29.8438   28.7639 C   0  0  0  0  0  0  0  0  0  0  0  0
  -16.4122  -28.9172   27.7813 C   0  0  0  0  0  0  0  0  0  0  0  0
  -15.1477  -28.3505   27.7470 C   0  0  0  0  0  0  0  0  0  0  0  0
  -17.5675  -28.6373   26.8709 C   0  0  0  0  0  0  0  0  0  0  0  0
  -18.4732  -29.8428   27.1602 C   0  0  0  0  0  0  0  0  0  0  0  0
  -18.1923  -30.2671   28.6091 C   0  0  0  0  0  0  0  0  0  0  0  0
  -11.1894  -24.3702   30.8416 N   0  0  0  0  0  0  0  0  0  0  0  0
  -11.0233  -20.8049   31.3211 H   0  0  0  0  0  0  0  0  0  0  0  0
  -10.2067  -21.7286   32.5294 H   0  0  0  0  0  0  0  0  0  0  0  0
  -11.4671  -20.6015   33.0211 H   0  0  0  0  0  0  0  0  0  0  0  0
  -14.0447  -21.7846   31.2674 H   0  0  0  0  0  0  0  0  0  0  0  0
  -14.2228  -22.4880   32.8852 H   0  0  0  0  0  0  0  0  0  0  0  0
  -13.5668  -20.9599   32.7752 H   0  0  0  0  0  0  0  0  0  0  0  0
  -10.9953  -24.7066   32.4050 H   0  0  0  0  0  0  0  0  0  0  0  0
  -12.0412  -21.6031   29.3615 H   0  0  0  0  0  0  0  0  0  0  0  0
  -11.5992  -23.6640   27.6422 H   0  0  0  0  0  0  0  0  0  0  0  0
  -11.3585  -26.7643   30.0335 H   0  0  0  0  0  0  0  0  0  0  0  0
  -12.1072  -28.8293   28.2314 H   0  0  0  0  0  0  0  0  0  0  0  0
  -12.5098  -28.2310   29.8167 H   0  0  0  0  0  0  0  0  0  0  0  0
  -13.8575  -29.9965   30.4495 H   0  0  0  0  0  0  0  0  0  0  0  0
  -16.1297  -30.9540   30.4939 H   0  0  0  0  0  0  0  0  0  0  0  0
  -14.9085  -27.6509   26.9504 H   0  0  0  0  0  0  0  0  0  0  0  0
  -18.0529  -27.6986   27.1571 H   0  0  0  0  0  0  0  0  0  0  0  0
  -17.2727  -28.6027   25.8184 H   0  0  0  0  0  0  0  0  0  0  0  0
  -19.5310  -29.6223   26.9867 H   0  0  0  0  0  0  0  0  0  0  0  0
  -18.2004  -30.6666   26.4857 H   0  0  0  0  0  0  0  0  0  0  0  0
  -18.3273  -31.3440   28.7426 H   0  0  0  0  0  0  0  0  0  0  0  0
  -18.8265  -29.7182   29.3128 H   0  0  0  0  0  0  0  0  0  0  0  0
  1  2  1  0
  2  3  1  0
  2  4  1  0
  4  5  2  0
  4  6  1  0
  2  7  1  0
  7  8  1  0
  8  9  2  0
  9 10  1  0
 10 11  1  0
 11 12  1  0
 12 13  2  0
 12 14  1  0
 14 15  1  0
 15 16  2  0
 16 17  1  0
 17 18  2  0
 18 19  1  0
 19 20  2  0
 19 21  1  0
 21 22  1  0
 22 23  1  0
 10 24  2  0
 24  7  1  0
 20 15  1  0
 23 18  1  0
  1 25  1  0
  1 26  1  0
  1 27  1  0
  3 28  1  0
  3 29  1  0
  3 30  1  0
  6 31  1  0
  8 32  1  0
  9 33  1  0
 11 34  1  0
 14 35  1  0
 14 36  1  0
 16 37  1  0
 17 38  1  0
 20 39  1  0
 21 40  1  0
 21 41  1  0
 22 42  1  0
 22 43  1  0
 23 44  1  0
 23 45  1  0
M  END
>  <Energy>  (386) 
43.408763035213163

>  <compound_id>  (386) 
51852

>  <target_id>  (386) 
1

>  <reference_id>  (386) 
66

>  <inspiration_ids>  (386) 
[96, 66]

>  <energy_score>  (386) 
1.4322205177411433

>  <distance_score>  (386) 
3.993471858799497

>  <path>  (386) 
/opt/xchem-fragalysis-2/maxwin/BulkDock/SCRATCH/511025/C51852-P66/C51852-P66.minimised.mol

>  <scratch_subdir>  (386) 
/opt/xchem-fragalysis-2/maxwin/BulkDock/SCRATCH/511025/C51852-P66

>  <fragmenstein_runtime>  (386) 
15.929624319076538

>  <fragmenstein_outcome>  (386) 
too moved

>  <fragmenstein_mode>  (386) 
expansion

>  <fragmenstein_error>  (386) 


$$$$
C51854-P96
     RDKit          3D

 39 40  0  0  0  0  0  0  0  0999 V2000
   -3.3906  -19.6233   24.7064 C   0  0  0  0  0  0  0  0  0  0  0  0
   -3.2105  -18.7870   26.1011 C   0  0  0  0  0  0  0  0  0  0  0  0
   -4.6327  -18.7792   26.4496 C   0  0  0  0  0  0  0  0  0  0  0  0
   -2.7465  -19.6847   27.3238 C   0  0  0  0  0  0  0  0  0  0  0  0
   -2.9564  -20.8978   27.3767 O   0  0  0  0  0  0  0  0  0  0  0  0
   -2.0508  -19.1676   28.3307 O   0  0  0  0  0  0  0  0  0  0  0  0
   -2.5134  -17.4569   25.8651 N   0  0  0  0  0  0  0  0  0  0  0  0
   -2.8135  -15.7440   25.7683 C   0  0  0  0  0  0  0  0  0  0  0  0
   -2.5135  -15.4648   24.3838 C   0  0  0  0  0  0  0  0  0  0  0  0
   -2.5942  -14.0392   23.1001 N   0  0  0  0  0  0  0  0  0  0  0  0
   -1.2454  -12.7994   22.4280 C   0  0  0  0  0  0  0  0  0  0  0  0
   -0.1944  -12.8536   22.9395 O   0  0  0  0  0  0  0  0  0  0  0  0
   -1.1743  -11.3216   20.8860 C   0  0  0  0  0  0  0  0  0  0  0  0
   -0.9429   -9.5631   20.3791 O   0  0  0  0  0  0  0  0  0  0  0  0
    0.1971   -8.9165   19.8613 C   0  0  0  0  0  0  0  0  0  0  0  0
    1.5427   -9.1790   20.1389 C   0  0  0  0  0  0  0  0  0  0  0  0
    2.5715   -8.3927   19.5738 C   0  0  0  0  0  0  0  0  0  0  0  0
    2.2717   -7.3293   18.7286 C   0  0  0  0  0  0  0  0  0  0  0  0
    0.9360   -7.0449   18.4603 C   0  0  0  0  0  0  0  0  0  0  0  0
   -0.0827   -7.8244   19.0283 C   0  0  0  0  0  0  0  0  0  0  0  0
   -1.2432  -16.2210   25.1800 C   0  0  0  0  0  0  0  0  0  0  0  0
   -1.2704  -17.3138   25.8943 N   0  0  0  0  0  0  0  0  0  0  0  0
   -3.6702  -20.6652   24.9132 H   0  0  0  0  0  0  0  0  0  0  0  0
   -4.1706  -19.2125   24.0656 H   0  0  0  0  0  0  0  0  0  0  0  0
   -2.5281  -19.6482   24.0419 H   0  0  0  0  0  0  0  0  0  0  0  0
   -4.8669  -17.8191   26.8153 H   0  0  0  0  0  0  0  0  0  0  0  0
   -4.9639  -19.6334   27.0363 H   0  0  0  0  0  0  0  0  0  0  0  0
   -5.2344  -18.6552   25.6014 H   0  0  0  0  0  0  0  0  0  0  0  0
   -1.8308  -19.9132   28.9240 H   0  0  0  0  0  0  0  0  0  0  0  0
   -3.5337  -15.4442   26.5071 H   0  0  0  0  0  0  0  0  0  0  0  0
   -3.4236  -13.9595   22.5278 H   0  0  0  0  0  0  0  0  0  0  0  0
   -0.2091  -10.7158   21.0901 H   0  0  0  0  0  0  0  0  0  0  0  0
   -2.0859  -11.0531   20.0876 H   0  0  0  0  0  0  0  0  0  0  0  0
    1.8252   -9.9873   20.8065 H   0  0  0  0  0  0  0  0  0  0  0  0
    3.6073   -8.6185   19.8047 H   0  0  0  0  0  0  0  0  0  0  0  0
    3.0631   -6.7271   18.2927 H   0  0  0  0  0  0  0  0  0  0  0  0
    0.6786   -6.2118   17.8117 H   0  0  0  0  0  0  0  0  0  0  0  0
   -1.1187   -7.5746   18.8130 H   0  0  0  0  0  0  0  0  0  0  0  0
   -0.2725  -15.9080   25.4251 H   0  0  0  0  0  0  0  0  0  0  0  0
  1  2  1  0
  2  3  1  0
  2  4  1  0
  4  5  2  0
  4  6  1  0
  2  7  1  0
  7  8  1  0
  8  9  2  0
  9 10  1  0
 10 11  1  0
 11 12  2  0
 11 13  1  0
 13 14  1  0
 14 15  1  0
 15 16  2  0
 16 17  1  0
 17 18  2  0
 18 19  1  0
 19 20  2  0
  9 21  1  0
 21 22  2  0
 22  7  1  0
 20 15  1  0
  1 23  1  0
  1 24  1  0
  1 25  1  0
  3 26  1  0
  3 27  1  0
  3 28  1  0
  6 29  1  0
  8 30  1  0
 10 31  1  0
 13 32  1  0
 13 33  1  0
 16 34  1  0
 17 35  1  0
 18 36  1  0
 19 37  1  0
 20 38  1  0
 21 39  1  0
M  END
>  <Energy>  (387) 
730.71493916433326

>  <compound_id>  (387) 
51854

>  <target_id>  (387) 
1

>  <reference_id>  (387) 
96

>  <inspiration_ids>  (387) 
[96, 66]

>  <energy_score>  (387) 
634.3031653200907

>  <distance_score>  (387) 
13.550858958734796

>  <path>  (387) 
/opt/xchem-fragalysis-2/maxwin/BulkDock/SCRATCH/511025/C51854-P96/C51854-P96.minimised.mol

>  <scratch_subdir>  (387) 
/opt/xchem-fragalysis-2/maxwin/BulkDock/SCRATCH/511025/C51854-P96

>  <fragmenstein_runtime>  (387) 
35.774495363235474

>  <fragmenstein_outcome>  (387) 
too moved

>  <fragmenstein_mode>  (387) 
expansion

>  <fragmenstein_error>  (387) 


$$$$
C51854-P66
     RDKit          3D

 39 40  0  0  0  0  0  0  0  0999 V2000
   -6.4731   -9.6497   22.4034 C   0  0  0  0  0  0  0  0  0  0  0  0
   -5.4982   -9.4826   21.2124 C   0  0  0  0  0  0  0  0  0  0  0  0
   -5.8062   -8.1312   20.5311 C   0  0  0  0  0  0  0  0  0  0  0  0
   -5.7578  -10.5485   20.1501 C   0  0  0  0  0  0  0  0  0  0  0  0
   -5.0035  -10.9315   19.2675 O   0  0  0  0  0  0  0  0  0  0  0  0
   -7.0168  -11.0475   20.1538 O   0  0  0  0  0  0  0  0  0  0  0  0
   -4.0885   -9.4498   21.6728 N   0  0  0  0  0  0  0  0  0  0  0  0
   -2.9300   -9.6127   20.9322 C   0  0  0  0  0  0  0  0  0  0  0  0
   -1.9680   -8.8049   21.5076 C   0  0  0  0  0  0  0  0  0  0  0  0
   -0.7107   -8.5318   21.0042 N   0  0  0  0  0  0  0  0  0  0  0  0
    0.3031   -7.5610   21.4277 C   0  0  0  0  0  0  0  0  0  0  0  0
    0.3266   -6.8126   22.3689 O   0  0  0  0  0  0  0  0  0  0  0  0
    1.4978   -7.5385   20.3913 C   0  0  0  0  0  0  0  0  0  0  0  0
    2.4567   -6.4564   20.5463 O   0  0  0  0  0  0  0  0  0  0  0  0
    3.3321   -6.3830   19.4944 C   0  0  0  0  0  0  0  0  0  0  0  0
    4.6434   -6.7935   19.6912 C   0  0  0  0  0  0  0  0  0  0  0  0
    5.5290   -6.7848   18.6197 C   0  0  0  0  0  0  0  0  0  0  0  0
    5.1195   -6.3310   17.3666 C   0  0  0  0  0  0  0  0  0  0  0  0
    3.8217   -5.8577   17.1903 C   0  0  0  0  0  0  0  0  0  0  0  0
    2.9320   -5.8713   18.2610 C   0  0  0  0  0  0  0  0  0  0  0  0
   -2.5937   -8.3405   22.6817 C   0  0  0  0  0  0  0  0  0  0  0  0
   -3.8130   -8.8540   22.8636 N   0  0  0  0  0  0  0  0  0  0  0  0
   -6.3519   -8.8545   23.1479 H   0  0  0  0  0  0  0  0  0  0  0  0
   -6.3305  -10.6070   22.9139 H   0  0  0  0  0  0  0  0  0  0  0  0
   -7.5196   -9.6089   22.0789 H   0  0  0  0  0  0  0  0  0  0  0  0
   -6.8390   -8.0963   20.1647 H   0  0  0  0  0  0  0  0  0  0  0  0
   -5.6669   -7.2911   21.2215 H   0  0  0  0  0  0  0  0  0  0  0  0
   -5.1516   -7.9596   19.6678 H   0  0  0  0  0  0  0  0  0  0  0  0
   -7.0292  -11.6623   19.3908 H   0  0  0  0  0  0  0  0  0  0  0  0
   -2.9191  -10.1521   19.9966 H   0  0  0  0  0  0  0  0  0  0  0  0
   -0.3569   -9.0568   20.1986 H   0  0  0  0  0  0  0  0  0  0  0  0
    1.0474   -7.4921   19.3919 H   0  0  0  0  0  0  0  0  0  0  0  0
    2.0363   -8.4837   20.5066 H   0  0  0  0  0  0  0  0  0  0  0  0
    4.9547   -7.1699   20.6614 H   0  0  0  0  0  0  0  0  0  0  0  0
    6.5196   -7.1823   18.7808 H   0  0  0  0  0  0  0  0  0  0  0  0
    5.7974   -6.3413   16.5208 H   0  0  0  0  0  0  0  0  0  0  0  0
    3.5014   -5.4873   16.2201 H   0  0  0  0  0  0  0  0  0  0  0  0
    1.9180   -5.5046   18.1276 H   0  0  0  0  0  0  0  0  0  0  0  0
   -2.1886   -7.6657   23.4261 H   0  0  0  0  0  0  0  0  0  0  0  0
  1  2  1  0
  2  3  1  0
  2  4  1  0
  4  5  2  0
  4  6  1  0
  2  7  1  0
  7  8  1  0
  8  9  2  0
  9 10  1  0
 10 11  1  0
 11 12  2  0
 11 13  1  0
 13 14  1  0
 14 15  1  0
 15 16  2  0
 16 17  1  0
 17 18  2  0
 18 19  1  0
 19 20  2  0
  9 21  1  0
 21 22  2  0
 22  7  1  0
 20 15  1  0
  1 23  1  0
  1 24  1  0
  1 25  1  0
  3 26  1  0
  3 27  1  0
  3 28  1  0
  6 29  1  0
  8 30  1  0
 10 31  1  0
 13 32  1  0
 13 33  1  0
 16 34  1  0
 17 35  1  0
 18 36  1  0
 19 37  1  0
 20 38  1  0
 21 39  1  0
M  END
>  <Energy>  (388) 
57.787665427618386

>  <compound_id>  (388) 
51854

>  <target_id>  (388) 
1

>  <reference_id>  (388) 
66

>  <inspiration_ids>  (388) 
[96, 66]

>  <energy_score>  (388) 
-38.62410841662938

>  <distance_score>  (388) 
15.527115130197416

>  <path>  (388) 
/opt/xchem-fragalysis-2/maxwin/BulkDock/SCRATCH/511025/C51854-P66/C51854-P66.minimised.mol

>  <scratch_subdir>  (388) 
/opt/xchem-fragalysis-2/maxwin/BulkDock/SCRATCH/511025/C51854-P66

>  <fragmenstein_runtime>  (388) 
30.93952703475952

>  <fragmenstein_outcome>  (388) 
too moved

>  <fragmenstein_mode>  (388) 
expansion

>  <fragmenstein_error>  (388) 


$$$$
C51856-P96
     RDKit          3D

 38 39  0  0  0  0  0  0  0  0999 V2000
   -7.0501  -19.7761   21.1994 C   0  0  0  0  0  0  0  0  0  0  0  0
   -6.7798  -19.0153   19.8862 C   0  0  0  0  0  0  0  0  0  0  0  0
   -7.8984  -19.1663   18.8137 C   0  0  0  0  0  0  0  0  0  0  0  0
   -5.5637  -19.7740   19.2538 C   0  0  0  0  0  0  0  0  0  0  0  0
   -4.4602  -19.3276   18.9742 O   0  0  0  0  0  0  0  0  0  0  0  0
   -5.8139  -21.0999   19.0106 O   0  0  0  0  0  0  0  0  0  0  0  0
   -6.5186  -17.5478   20.0222 N   0  0  0  0  0  0  0  0  0  0  0  0
   -6.3815  -16.5982   21.0866 C   0  0  0  0  0  0  0  0  0  0  0  0
   -5.2815  -15.7511   20.7184 C   0  0  0  0  0  0  0  0  0  0  0  0
   -4.0948  -14.7428   21.3333 N   0  0  0  0  0  0  0  0  0  0  0  0
   -2.6954  -13.7451   20.4450 C   0  0  0  0  0  0  0  0  0  0  0  0
   -2.6959  -13.7586   19.2474 O   0  0  0  0  0  0  0  0  0  0  0  0
   -1.0932  -12.5913   21.2430 C   0  0  0  0  0  0  0  0  0  0  0  0
   -0.5098  -10.5765   20.8149 C   0  0  0  0  0  0  0  0  0  0  0  0
   -1.1858   -9.4557   19.9912 C   0  0  0  0  0  0  0  0  0  0  0  0
   -0.5360   -8.2458   19.6082 C   0  0  0  0  0  0  0  0  0  0  0  0
    0.7819   -7.9529   19.9841 C   0  0  0  0  0  0  0  0  0  0  0  0
    1.4974   -8.8398   20.7787 C   0  0  0  0  0  0  0  0  0  0  0  0
    0.9075  -10.0594   21.1970 C   0  0  0  0  0  0  0  0  0  0  0  0
   -5.0849  -16.2510   19.3292 C   0  0  0  0  0  0  0  0  0  0  0  0
   -6.1046  -16.9743   18.8832 N   0  0  0  0  0  0  0  0  0  0  0  0
   -6.1911  -20.3515   21.5549 H   0  0  0  0  0  0  0  0  0  0  0  0
   -7.7832  -20.5776   21.0596 H   0  0  0  0  0  0  0  0  0  0  0  0
   -7.3591  -19.1173   22.0127 H   0  0  0  0  0  0  0  0  0  0  0  0
   -8.3948  -20.1414   18.8639 H   0  0  0  0  0  0  0  0  0  0  0  0
   -7.4884  -19.0854   17.7977 H   0  0  0  0  0  0  0  0  0  0  0  0
   -8.6590  -18.3826   18.8855 H   0  0  0  0  0  0  0  0  0  0  0  0
   -6.6984  -21.4161   19.2768 H   0  0  0  0  0  0  0  0  0  0  0  0
   -6.8698  -16.8066   22.0219 H   0  0  0  0  0  0  0  0  0  0  0  0
   -4.0250  -14.5752   22.3218 H   0  0  0  0  0  0  0  0  0  0  0  0
   -1.1124  -12.7582   22.3340 H   0  0  0  0  0  0  0  0  0  0  0  0
   -0.4284  -13.3044   20.7696 H   0  0  0  0  0  0  0  0  0  0  0  0
   -2.1775   -9.6271   19.5611 H   0  0  0  0  0  0  0  0  0  0  0  0
   -1.0731   -7.5429   18.9735 H   0  0  0  0  0  0  0  0  0  0  0  0
    1.2469   -7.0306   19.6464 H   0  0  0  0  0  0  0  0  0  0  0  0
    2.5248   -8.6211   21.0537 H   0  0  0  0  0  0  0  0  0  0  0  0
    1.5502  -10.7270   21.7749 H   0  0  0  0  0  0  0  0  0  0  0  0
   -4.2374  -16.0576   18.6853 H   0  0  0  0  0  0  0  0  0  0  0  0
  1  2  1  0
  2  3  1  0
  2  4  1  0
  4  5  2  0
  4  6  1  0
  2  7  1  0
  7  8  1  0
  8  9  2  0
  9 10  1  0
 10 11  1  0
 11 12  2  0
 11 13  1  0
 13 14  1  0
 14 15  2  0
 15 16  1  0
 16 17  2  0
 17 18  1  0
 18 19  2  0
  9 20  1  0
 20 21  2  0
 21  7  1  0
 19 14  1  0
  1 22  1  0
  1 23  1  0
  1 24  1  0
  3 25  1  0
  3 26  1  0
  3 27  1  0
  6 28  1  0
  8 29  1  0
 10 30  1  0
 13 31  1  0
 13 32  1  0
 15 33  1  0
 16 34  1  0
 17 35  1  0
 18 36  1  0
 19 37  1  0
 20 38  1  0
M  END
>  <Energy>  (389) 
476.85964080581249

>  <compound_id>  (389) 
51856

>  <target_id>  (389) 
1

>  <reference_id>  (389) 
96

>  <inspiration_ids>  (389) 
[96, 66]

>  <energy_score>  (389) 
398.00315121951974

>  <distance_score>  (389) 
14.554239064564523

>  <path>  (389) 
/opt/xchem-fragalysis-2/maxwin/BulkDock/SCRATCH/511025/C51856-P96/C51856-P96.minimised.mol

>  <scratch_subdir>  (389) 
/opt/xchem-fragalysis-2/maxwin/BulkDock/SCRATCH/511025/C51856-P96

>  <fragmenstein_runtime>  (389) 
17.565176486968994

>  <fragmenstein_outcome>  (389) 
too moved

>  <fragmenstein_mode>  (389) 
expansion

>  <fragmenstein_error>  (389) 


$$$$
C51856-P66
     RDKit          3D

 38 39  0  0  0  0  0  0  0  0999 V2000
   -0.9716  -17.1607   30.4678 C   0  0  0  0  0  0  0  0  0  0  0  0
   -2.3135  -16.4449   30.2067 C   0  0  0  0  0  0  0  0  0  0  0  0
   -3.4555  -17.3499   30.7166 C   0  0  0  0  0  0  0  0  0  0  0  0
   -2.4387  -15.1495   31.0046 C   0  0  0  0  0  0  0  0  0  0  0  0
   -3.3916  -14.3838   31.0124 O   0  0  0  0  0  0  0  0  0  0  0  0
   -1.3870  -14.8776   31.8078 O   0  0  0  0  0  0  0  0  0  0  0  0
   -2.4593  -16.1853   28.7550 N   0  0  0  0  0  0  0  0  0  0  0  0
   -1.8242  -15.1783   28.0123 C   0  0  0  0  0  0  0  0  0  0  0  0
   -2.1349  -14.8618   26.5316 C   0  0  0  0  0  0  0  0  0  0  0  0
   -1.0292  -13.7616   25.4279 N   0  0  0  0  0  0  0  0  0  0  0  0
    0.8741  -13.4119   25.6022 C   0  0  0  0  0  0  0  0  0  0  0  0
    1.6126  -13.7624   26.4920 O   0  0  0  0  0  0  0  0  0  0  0  0
    1.9547  -12.5063   24.1154 C   0  0  0  0  0  0  0  0  0  0  0  0
    3.4107  -11.9785   22.9346 C   0  0  0  0  0  0  0  0  0  0  0  0
    4.1228  -10.5787   22.6109 C   0  0  0  0  0  0  0  0  0  0  0  0
    5.2364  -10.2225   21.6841 C   0  0  0  0  0  0  0  0  0  0  0  0
    5.7549  -11.1228   20.7543 C   0  0  0  0  0  0  0  0  0  0  0  0
    5.0754  -12.3387   20.6527 C   0  0  0  0  0  0  0  0  0  0  0  0
    3.8776  -12.6960   21.6239 C   0  0  0  0  0  0  0  0  0  0  0  0
   -2.4512  -16.6855   26.7787 C   0  0  0  0  0  0  0  0  0  0  0  0
   -2.6827  -17.2175   27.9700 N   0  0  0  0  0  0  0  0  0  0  0  0
   -0.1192  -16.5438   30.1618 H   0  0  0  0  0  0  0  0  0  0  0  0
   -0.8435  -17.3944   31.5311 H   0  0  0  0  0  0  0  0  0  0  0  0
   -0.9040  -18.1047   29.9145 H   0  0  0  0  0  0  0  0  0  0  0  0
   -3.4313  -17.4399   31.8092 H   0  0  0  0  0  0  0  0  0  0  0  0
   -4.4389  -16.9498   30.4423 H   0  0  0  0  0  0  0  0  0  0  0  0
   -3.3815  -18.3613   30.3038 H   0  0  0  0  0  0  0  0  0  0  0  0
   -1.6031  -13.9919   32.1723 H   0  0  0  0  0  0  0  0  0  0  0  0
   -0.9334  -14.9310   28.5325 H   0  0  0  0  0  0  0  0  0  0  0  0
   -1.3692  -13.3074   24.6832 H   0  0  0  0  0  0  0  0  0  0  0  0
    2.7426  -13.2452   24.3091 H   0  0  0  0  0  0  0  0  0  0  0  0
    1.9425  -11.6347   24.6485 H   0  0  0  0  0  0  0  0  0  0  0  0
    3.7394   -9.6164   22.9544 H   0  0  0  0  0  0  0  0  0  0  0  0
    5.5909   -9.1929   21.6880 H   0  0  0  0  0  0  0  0  0  0  0  0
    6.5509  -10.8553   20.0712 H   0  0  0  0  0  0  0  0  0  0  0  0
    5.3146  -13.0415   19.8579 H   0  0  0  0  0  0  0  0  0  0  0  0
    3.3850  -13.6067   21.3485 H   0  0  0  0  0  0  0  0  0  0  0  0
   -2.4065  -17.3508   25.9279 H   0  0  0  0  0  0  0  0  0  0  0  0
  1  2  1  0
  2  3  1  0
  2  4  1  0
  4  5  2  0
  4  6  1  0
  2  7  1  0
  7  8  1  0
  8  9  2  0
  9 10  1  0
 10 11  1  0
 11 12  2  0
 11 13  1  0
 13 14  1  0
 14 15  2  0
 15 16  1  0
 16 17  2  0
 17 18  1  0
 18 19  2  0
  9 20  1  0
 20 21  2  0
 21  7  1  0
 19 14  1  0
  1 22  1  0
  1 23  1  0
  1 24  1  0
  3 25  1  0
  3 26  1  0
  3 27  1  0
  6 28  1  0
  8 29  1  0
 10 30  1  0
 13 31  1  0
 13 32  1  0
 15 33  1  0
 16 34  1  0
 17 35  1  0
 18 36  1  0
 19 37  1  0
 20 38  1  0
M  END
>  <Energy>  (390) 
616.22941095337535

>  <compound_id>  (390) 
51856

>  <target_id>  (390) 
1

>  <reference_id>  (390) 
66

>  <inspiration_ids>  (390) 
[96, 66]

>  <energy_score>  (390) 
537.372921367083

>  <distance_score>  (390) 
13.65998340921199

>  <path>  (390) 
/opt/xchem-fragalysis-2/maxwin/BulkDock/SCRATCH/511025/C51856-P66/C51856-P66.minimised.mol

>  <scratch_subdir>  (390) 
/opt/xchem-fragalysis-2/maxwin/BulkDock/SCRATCH/511025/C51856-P66

>  <fragmenstein_runtime>  (390) 
18.973491668701172

>  <fragmenstein_outcome>  (390) 
too moved

>  <fragmenstein_mode>  (390) 
expansion

>  <fragmenstein_error>  (390) 


$$$$
C51857-P96
     RDKit          3D

 45 47  0  0  0  0  0  0  0  0999 V2000
   -1.8552  -19.3331   27.1565 C   0  0  0  0  0  0  0  0  0  0  0  0
   -2.6611  -19.2050   25.7950 C   0  0  0  0  0  0  0  0  0  0  0  0
   -2.7078  -20.5819   24.9167 C   0  0  0  0  0  0  0  0  0  0  0  0
   -4.0324  -19.3952   26.3396 C   0  0  0  0  0  0  0  0  0  0  0  0
   -4.9856  -18.6659   26.3055 O   0  0  0  0  0  0  0  0  0  0  0  0
   -4.1859  -20.5668   27.0254 O   0  0  0  0  0  0  0  0  0  0  0  0
   -2.2238  -17.9886   24.7836 N   0  0  0  0  0  0  0  0  0  0  0  0
   -0.8055  -16.7849   24.9978 C   0  0  0  0  0  0  0  0  0  0  0  0
    0.5484  -17.1526   23.7683 C   0  0  0  0  0  0  0  0  0  0  0  0
    2.2498  -16.4300   23.7025 N   0  0  0  0  0  0  0  0  0  0  0  0
    3.5079  -16.8728   22.9349 C   0  0  0  0  0  0  0  0  0  0  0  0
    3.6652  -17.7584   22.1223 O   0  0  0  0  0  0  0  0  0  0  0  0
    4.7615  -15.9379   23.3993 C   0  0  0  0  0  0  0  0  0  0  0  0
    5.4138  -14.7367   22.5906 C   0  0  0  0  0  0  0  0  0  0  0  0
    5.0526  -13.3845   22.8521 C   0  0  0  0  0  0  0  0  0  0  0  0
    5.6977  -12.2679   22.2665 C   0  0  0  0  0  0  0  0  0  0  0  0
    6.7843  -12.4798   21.4479 C   0  0  0  0  0  0  0  0  0  0  0  0
    7.2126  -13.7844   21.1956 C   0  0  0  0  0  0  0  0  0  0  0  0
    6.5408  -14.9042   21.7421 C   0  0  0  0  0  0  0  0  0  0  0  0
    8.4007  -13.7576   20.2717 C   0  0  0  0  0  0  0  0  0  0  0  0
    8.8640  -12.3012   20.4023 C   0  0  0  0  0  0  0  0  0  0  0  0
    7.6120  -11.4744   20.7175 C   0  0  0  0  0  0  0  0  0  0  0  0
   -0.4457  -18.2732   22.5809 C   0  0  0  0  0  0  0  0  0  0  0  0
   -1.8684  -18.8031   23.1205 N   0  0  0  0  0  0  0  0  0  0  0  0
   -0.9604  -18.7239   27.2100 H   0  0  0  0  0  0  0  0  0  0  0  0
   -1.5538  -20.3755   27.3374 H   0  0  0  0  0  0  0  0  0  0  0  0
   -2.4422  -19.0852   28.0436 H   0  0  0  0  0  0  0  0  0  0  0  0
   -2.7455  -21.4729   25.5575 H   0  0  0  0  0  0  0  0  0  0  0  0
   -1.8662  -20.7908   24.2534 H   0  0  0  0  0  0  0  0  0  0  0  0
   -3.6014  -20.5971   24.2775 H   0  0  0  0  0  0  0  0  0  0  0  0
   -5.1360  -20.5853   27.2610 H   0  0  0  0  0  0  0  0  0  0  0  0
   -0.8948  -16.2541   25.9221 H   0  0  0  0  0  0  0  0  0  0  0  0
    2.4993  -15.7084   24.3668 H   0  0  0  0  0  0  0  0  0  0  0  0
    5.5766  -16.6532   23.5831 H   0  0  0  0  0  0  0  0  0  0  0  0
    4.5321  -15.5461   24.3993 H   0  0  0  0  0  0  0  0  0  0  0  0
    4.2792  -13.1612   23.5806 H   0  0  0  0  0  0  0  0  0  0  0  0
    5.3550  -11.2628   22.4933 H   0  0  0  0  0  0  0  0  0  0  0  0
    6.9128  -15.9048   21.5295 H   0  0  0  0  0  0  0  0  0  0  0  0
    8.0810  -13.9828   19.2490 H   0  0  0  0  0  0  0  0  0  0  0  0
    9.1823  -14.4560   20.5833 H   0  0  0  0  0  0  0  0  0  0  0  0
    9.3863  -11.9463   19.5084 H   0  0  0  0  0  0  0  0  0  0  0  0
    9.5690  -12.2220   21.2416 H   0  0  0  0  0  0  0  0  0  0  0  0
    7.8536  -10.6022   21.3314 H   0  0  0  0  0  0  0  0  0  0  0  0
    7.1022  -11.1597   19.8012 H   0  0  0  0  0  0  0  0  0  0  0  0
    0.1042  -19.1714   22.4810 H   0  0  0  0  0  0  0  0  0  0  0  0
  1  2  1  0
  2  3  1  0
  2  4  1  0
  4  5  2  0
  4  6  1  0
  2  7  1  0
  7  8  1  0
  8  9  2  0
  9 10  1  0
 10 11  1  0
 11 12  2  0
 11 13  1  0
 13 14  1  0
 14 15  2  0
 15 16  1  0
 16 17  2  0
 17 18  1  0
 18 19  2  0
 18 20  1  0
 20 21  1  0
 21 22  1  0
  9 23  1  0
 23 24  2  0
 24  7  1  0
 19 14  1  0
 22 17  1  0
  1 25  1  0
  1 26  1  0
  1 27  1  0
  3 28  1  0
  3 29  1  0
  3 30  1  0
  6 31  1  0
  8 32  1  0
 10 33  1  0
 13 34  1  0
 13 35  1  0
 15 36  1  0
 16 37  1  0
 19 38  1  0
 20 39  1  0
 20 40  1  0
 21 41  1  0
 21 42  1  0
 22 43  1  0
 22 44  1  0
 23 45  1  0
M  END
>  <Energy>  (391) 
495.58654003058598

>  <compound_id>  (391) 
51857

>  <target_id>  (391) 
1

>  <reference_id>  (391) 
96

>  <inspiration_ids>  (391) 
[96, 66]

>  <energy_score>  (391) 
416.1960840101056

>  <distance_score>  (391) 
14.092490096202898

>  <path>  (391) 
/opt/xchem-fragalysis-2/maxwin/BulkDock/SCRATCH/511025/C51857-P96/C51857-P96.minimised.mol

>  <scratch_subdir>  (391) 
/opt/xchem-fragalysis-2/maxwin/BulkDock/SCRATCH/511025/C51857-P96

>  <fragmenstein_runtime>  (391) 
21.195159912109375

>  <fragmenstein_outcome>  (391) 
too moved

>  <fragmenstein_mode>  (391) 
expansion

>  <fragmenstein_error>  (391) 


$$$$
C51857-P66
     RDKit          3D

 45 47  0  0  0  0  0  0  0  0999 V2000
   -6.5866   -8.2413   22.6361 C   0  0  0  0  0  0  0  0  0  0  0  0
   -6.4650   -9.5066   21.7553 C   0  0  0  0  0  0  0  0  0  0  0  0
   -6.9404  -10.7020   22.5946 C   0  0  0  0  0  0  0  0  0  0  0  0
   -7.3962   -9.2589   20.5630 C   0  0  0  0  0  0  0  0  0  0  0  0
   -7.4608   -8.2309   19.9008 O   0  0  0  0  0  0  0  0  0  0  0  0
   -8.2310  -10.2780   20.2613 O   0  0  0  0  0  0  0  0  0  0  0  0
   -5.0961   -9.7054   21.2503 N   0  0  0  0  0  0  0  0  0  0  0  0
   -3.9234   -9.1236   21.7060 C   0  0  0  0  0  0  0  0  0  0  0  0
   -3.0411   -9.1370   20.6400 C   0  0  0  0  0  0  0  0  0  0  0  0
   -1.8352   -8.4522   20.5723 N   0  0  0  0  0  0  0  0  0  0  0  0
   -1.0085   -8.0629   19.4119 C   0  0  0  0  0  0  0  0  0  0  0  0
   -1.2139   -8.1730   18.2328 O   0  0  0  0  0  0  0  0  0  0  0  0
    0.3225   -7.4014   19.9468 C   0  0  0  0  0  0  0  0  0  0  0  0
    1.3972   -6.9229   18.9429 C   0  0  0  0  0  0  0  0  0  0  0  0
    1.0355   -6.1716   17.8058 C   0  0  0  0  0  0  0  0  0  0  0  0
    1.9761   -5.7976   16.8438 C   0  0  0  0  0  0  0  0  0  0  0  0
    3.2902   -6.1686   17.0349 C   0  0  0  0  0  0  0  0  0  0  0  0
    3.7090   -6.8052   18.2030 C   0  0  0  0  0  0  0  0  0  0  0  0
    2.7749   -7.1825   19.1643 C   0  0  0  0  0  0  0  0  0  0  0  0
    5.1885   -7.0332   18.1635 C   0  0  0  0  0  0  0  0  0  0  0  0
    5.4290   -6.9951   16.6480 C   0  0  0  0  0  0  0  0  0  0  0  0
    4.3913   -6.0425   16.0488 C   0  0  0  0  0  0  0  0  0  0  0  0
   -3.6820   -9.9822   19.7005 C   0  0  0  0  0  0  0  0  0  0  0  0
   -4.8937  -10.3969   20.1002 N   0  0  0  0  0  0  0  0  0  0  0  0
   -6.0224   -8.3386   23.5687 H   0  0  0  0  0  0  0  0  0  0  0  0
   -7.6323   -8.0472   22.9044 H   0  0  0  0  0  0  0  0  0  0  0  0
   -6.2159   -7.3492   22.1166 H   0  0  0  0  0  0  0  0  0  0  0  0
   -7.9780  -10.5681   22.9234 H   0  0  0  0  0  0  0  0  0  0  0  0
   -6.3290  -10.8283   23.4936 H   0  0  0  0  0  0  0  0  0  0  0  0
   -6.9031  -11.6373   22.0276 H   0  0  0  0  0  0  0  0  0  0  0  0
   -8.6693   -9.9736   19.4382 H   0  0  0  0  0  0  0  0  0  0  0  0
   -3.8855   -8.6107   22.6540 H   0  0  0  0  0  0  0  0  0  0  0  0
   -1.3872   -8.1340   21.4199 H   0  0  0  0  0  0  0  0  0  0  0  0
    0.0364   -6.5281   20.5466 H   0  0  0  0  0  0  0  0  0  0  0  0
    0.7863   -8.1319   20.6218 H   0  0  0  0  0  0  0  0  0  0  0  0
   -0.0118   -5.9302   17.6291 H   0  0  0  0  0  0  0  0  0  0  0  0
    1.6578   -5.2903   15.9387 H   0  0  0  0  0  0  0  0  0  0  0  0
    3.0882   -7.7378   20.0451 H   0  0  0  0  0  0  0  0  0  0  0  0
    5.4789   -7.9968   18.5906 H   0  0  0  0  0  0  0  0  0  0  0  0
    5.7071   -6.2189   18.6778 H   0  0  0  0  0  0  0  0  0  0  0  0
    5.2731   -8.0021   16.2354 H   0  0  0  0  0  0  0  0  0  0  0  0
    6.4423   -6.7012   16.3838 H   0  0  0  0  0  0  0  0  0  0  0  0
    4.7252   -5.0084   16.0089 H   0  0  0  0  0  0  0  0  0  0  0  0
    4.0879   -6.3740   15.0512 H   0  0  0  0  0  0  0  0  0  0  0  0
   -3.3052  -10.2971   18.7351 H   0  0  0  0  0  0  0  0  0  0  0  0
  1  2  1  0
  2  3  1  0
  2  4  1  0
  4  5  2  0
  4  6  1  0
  2  7  1  0
  7  8  1  0
  8  9  2  0
  9 10  1  0
 10 11  1  0
 11 12  2  0
 11 13  1  0
 13 14  1  0
 14 15  2  0
 15 16  1  0
 16 17  2  0
 17 18  1  0
 18 19  2  0
 18 20  1  0
 20 21  1  0
 21 22  1  0
  9 23  1  0
 23 24  2  0
 24  7  1  0
 19 14  1  0
 22 17  1  0
  1 25  1  0
  1 26  1  0
  1 27  1  0
  3 28  1  0
  3 29  1  0
  3 30  1  0
  6 31  1  0
  8 32  1  0
 10 33  1  0
 13 34  1  0
 13 35  1  0
 15 36  1  0
 16 37  1  0
 19 38  1  0
 20 39  1  0
 20 40  1  0
 21 41  1  0
 21 42  1  0
 22 43  1  0
 22 44  1  0
 23 45  1  0
M  END
>  <Energy>  (392) 
59.006763047480042

>  <compound_id>  (392) 
51857

>  <target_id>  (392) 
1

>  <reference_id>  (392) 
66

>  <inspiration_ids>  (392) 
[96, 66]

>  <energy_score>  (392) 
-20.383692973009886

>  <distance_score>  (392) 
15.29865612461058

>  <path>  (392) 
/opt/xchem-fragalysis-2/maxwin/BulkDock/SCRATCH/511025/C51857-P66/C51857-P66.minimised.mol

>  <scratch_subdir>  (392) 
/opt/xchem-fragalysis-2/maxwin/BulkDock/SCRATCH/511025/C51857-P66

>  <fragmenstein_runtime>  (392) 
20.826679944992065

>  <fragmenstein_outcome>  (392) 
too moved

>  <fragmenstein_mode>  (392) 
expansion

>  <fragmenstein_error>  (392) 


$$$$
C51858-P96
     RDKit          3D

 42 43  0  0  0  0  0  0  0  0999 V2000
   -1.6047  -19.0029   22.5130 C   0  0  0  0  0  0  0  0  0  0  0  0
   -2.3380  -19.0151   23.8716 C   0  0  0  0  0  0  0  0  0  0  0  0
   -4.0102  -19.7115   24.2797 C   0  0  0  0  0  0  0  0  0  0  0  0
   -1.8638  -20.7830   23.5507 C   0  0  0  0  0  0  0  0  0  0  0  0
   -2.6510  -21.6819   23.2449 O   0  0  0  0  0  0  0  0  0  0  0  0
   -0.5746  -21.1985   23.5247 O   0  0  0  0  0  0  0  0  0  0  0  0
   -1.8057  -17.5682   25.1911 N   0  0  0  0  0  0  0  0  0  0  0  0
   -0.1196  -16.7939   25.2168 C   0  0  0  0  0  0  0  0  0  0  0  0
    0.8874  -15.7177   26.1572 C   0  0  0  0  0  0  0  0  0  0  0  0
    2.2988  -15.0837   25.0909 N   0  0  0  0  0  0  0  0  0  0  0  0
    3.3532  -13.5207   25.2282 C   0  0  0  0  0  0  0  0  0  0  0  0
    3.3378  -12.7695   26.1345 O   0  0  0  0  0  0  0  0  0  0  0  0
    4.4163  -12.7523   23.7339 C   0  0  0  0  0  0  0  0  0  0  0  0
    5.5864  -11.1874   23.6678 N   0  0  0  0  0  0  0  0  0  0  0  0
    5.4342   -9.8621   22.9721 C   0  0  0  0  0  0  0  0  0  0  0  0
    4.5104   -9.4039   22.3437 O   0  0  0  0  0  0  0  0  0  0  0  0
    6.6563   -8.9775   22.9503 C   0  0  0  0  0  0  0  0  0  0  0  0
    7.8940   -9.4390   22.4781 C   0  0  0  0  0  0  0  0  0  0  0  0
    8.9447   -8.5412   22.2193 C   0  0  0  0  0  0  0  0  0  0  0  0
    8.7740   -7.1748   22.4340 C   0  0  0  0  0  0  0  0  0  0  0  0
    7.5483   -6.7033   22.9012 C   0  0  0  0  0  0  0  0  0  0  0  0
    6.4935   -7.5948   23.1332 C   0  0  0  0  0  0  0  0  0  0  0  0
   -0.9879  -15.8221   26.1352 C   0  0  0  0  0  0  0  0  0  0  0  0
   -2.1111  -16.3268   25.5044 N   0  0  0  0  0  0  0  0  0  0  0  0
   -1.3823  -18.0597   22.0626 H   0  0  0  0  0  0  0  0  0  0  0  0
   -0.5759  -19.3594   22.5693 H   0  0  0  0  0  0  0  0  0  0  0  0
   -2.1289  -19.7071   21.8500 H   0  0  0  0  0  0  0  0  0  0  0  0
   -4.5639  -18.8368   24.5736 H   0  0  0  0  0  0  0  0  0  0  0  0
   -4.2500  -20.3264   25.1603 H   0  0  0  0  0  0  0  0  0  0  0  0
   -4.3723  -20.4180   23.5189 H   0  0  0  0  0  0  0  0  0  0  0  0
   -0.6171  -22.1451   23.2694 H   0  0  0  0  0  0  0  0  0  0  0  0
    0.3584  -17.0740   24.2659 H   0  0  0  0  0  0  0  0  0  0  0  0
    2.5600  -15.6085   24.2492 H   0  0  0  0  0  0  0  0  0  0  0  0
    3.5487  -12.1488   23.4507 H   0  0  0  0  0  0  0  0  0  0  0  0
    4.4476  -13.3461   22.8022 H   0  0  0  0  0  0  0  0  0  0  0  0
    6.5497  -11.2705   24.0344 H   0  0  0  0  0  0  0  0  0  0  0  0
    8.0430  -10.4943   22.2638 H   0  0  0  0  0  0  0  0  0  0  0  0
    9.8966   -8.9184   21.8509 H   0  0  0  0  0  0  0  0  0  0  0  0
    9.5953   -6.4859   22.2523 H   0  0  0  0  0  0  0  0  0  0  0  0
    7.4011   -5.6392   23.0721 H   0  0  0  0  0  0  0  0  0  0  0  0
    5.5235   -7.2074   23.4417 H   0  0  0  0  0  0  0  0  0  0  0  0
   -1.4757  -14.9317   26.4838 H   0  0  0  0  0  0  0  0  0  0  0  0
  1  2  1  0
  2  3  1  0
  2  4  1  0
  4  5  2  0
  4  6  1  0
  2  7  1  0
  7  8  1  0
  8  9  2  0
  9 10  1  0
 10 11  1  0
 11 12  2  0
 11 13  1  0
 13 14  1  0
 14 15  1  0
 15 16  2  0
 15 17  1  0
 17 18  2  0
 18 19  1  0
 19 20  2  0
 20 21  1  0
 21 22  2  0
  9 23  1  0
 23 24  2  0
 24  7  1  0
 22 17  1  0
  1 25  1  0
  1 26  1  0
  1 27  1  0
  3 28  1  0
  3 29  1  0
  3 30  1  0
  6 31  1  0
  8 32  1  0
 10 33  1  0
 13 34  1  0
 13 35  1  0
 14 36  1  0
 18 37  1  0
 19 38  1  0
 20 39  1  0
 21 40  1  0
 22 41  1  0
 23 42  1  0
M  END
>  <Energy>  (393) 
941.61079079205933

>  <compound_id>  (393) 
51858

>  <target_id>  (393) 
1

>  <reference_id>  (393) 
96

>  <inspiration_ids>  (393) 
[96, 66]

>  <energy_score>  (393) 
867.4306376433977

>  <distance_score>  (393) 
12.685017656686375

>  <path>  (393) 
/opt/xchem-fragalysis-2/maxwin/BulkDock/SCRATCH/511025/C51858-P96/C51858-P96.minimised.mol

>  <scratch_subdir>  (393) 
/opt/xchem-fragalysis-2/maxwin/BulkDock/SCRATCH/511025/C51858-P96

>  <fragmenstein_runtime>  (393) 
18.51814293861389

>  <fragmenstein_outcome>  (393) 
too moved

>  <fragmenstein_mode>  (393) 
expansion

>  <fragmenstein_error>  (393) 


$$$$
C51858-P66
     RDKit          3D

 42 43  0  0  0  0  0  0  0  0999 V2000
   -4.5167  -18.7635   18.3441 C   0  0  0  0  0  0  0  0  0  0  0  0
   -5.8660  -18.6606   17.6068 C   0  0  0  0  0  0  0  0  0  0  0  0
   -5.7974  -19.5257   16.3323 C   0  0  0  0  0  0  0  0  0  0  0  0
   -6.9634  -19.2325   18.5022 C   0  0  0  0  0  0  0  0  0  0  0  0
   -7.8696  -19.9712   18.1395 O   0  0  0  0  0  0  0  0  0  0  0  0
   -6.8618  -18.8762   19.8037 O   0  0  0  0  0  0  0  0  0  0  0  0
   -6.1512  -17.2654   17.2337 N   0  0  0  0  0  0  0  0  0  0  0  0
   -5.3177  -16.4363   16.5085 C   0  0  0  0  0  0  0  0  0  0  0  0
   -5.9179  -15.2007   16.4254 C   0  0  0  0  0  0  0  0  0  0  0  0
   -5.3779  -13.9985   15.9722 N   0  0  0  0  0  0  0  0  0  0  0  0
   -4.0212  -13.6659   15.5045 C   0  0  0  0  0  0  0  0  0  0  0  0
   -3.0623  -14.3657   15.3212 O   0  0  0  0  0  0  0  0  0  0  0  0
   -3.8891  -12.1195   15.2718 C   0  0  0  0  0  0  0  0  0  0  0  0
   -2.5573  -11.4928   15.1722 N   0  0  0  0  0  0  0  0  0  0  0  0
   -2.1610  -10.1052   15.1979 C   0  0  0  0  0  0  0  0  0  0  0  0
   -2.8202   -9.1048   15.2276 O   0  0  0  0  0  0  0  0  0  0  0  0
   -0.6653   -9.8184   15.1948 C   0  0  0  0  0  0  0  0  0  0  0  0
    0.2415  -10.3864   14.2900 C   0  0  0  0  0  0  0  0  0  0  0  0
    1.5964   -9.9872   14.2742 C   0  0  0  0  0  0  0  0  0  0  0  0
    2.0658   -9.0201   15.1631 C   0  0  0  0  0  0  0  0  0  0  0  0
    1.1751   -8.4417   16.0631 C   0  0  0  0  0  0  0  0  0  0  0  0
   -0.1732   -8.8257   16.0685 C   0  0  0  0  0  0  0  0  0  0  0  0
   -7.1727  -15.4205   17.0657 C   0  0  0  0  0  0  0  0  0  0  0  0
   -7.3166  -16.6572   17.5576 N   0  0  0  0  0  0  0  0  0  0  0  0
   -4.4463  -18.0238   19.1494 H   0  0  0  0  0  0  0  0  0  0  0  0
   -3.6717  -18.5884   17.6703 H   0  0  0  0  0  0  0  0  0  0  0  0
   -4.3798  -19.7563   18.7887 H   0  0  0  0  0  0  0  0  0  0  0  0
   -6.7259  -19.4549   15.7528 H   0  0  0  0  0  0  0  0  0  0  0  0
   -4.9786  -19.2152   15.6732 H   0  0  0  0  0  0  0  0  0  0  0  0
   -5.6423  -20.5828   16.5786 H   0  0  0  0  0  0  0  0  0  0  0  0
   -7.6163  -19.3271   20.2574 H   0  0  0  0  0  0  0  0  0  0  0  0
   -4.3481  -16.7727   16.1673 H   0  0  0  0  0  0  0  0  0  0  0  0
   -5.9566  -13.1689   15.9303 H   0  0  0  0  0  0  0  0  0  0  0  0
   -4.4132  -11.8791   14.3403 H   0  0  0  0  0  0  0  0  0  0  0  0
   -4.4049  -11.5973   16.0856 H   0  0  0  0  0  0  0  0  0  0  0  0
   -1.7276  -12.0758   15.2343 H   0  0  0  0  0  0  0  0  0  0  0  0
   -0.1036  -11.1193   13.5636 H   0  0  0  0  0  0  0  0  0  0  0  0
    2.2787  -10.4352   13.5543 H   0  0  0  0  0  0  0  0  0  0  0  0
    3.1105   -8.7209   15.1528 H   0  0  0  0  0  0  0  0  0  0  0  0
    1.5215   -7.6878   16.7658 H   0  0  0  0  0  0  0  0  0  0  0  0
   -0.8555   -8.3475   16.7709 H   0  0  0  0  0  0  0  0  0  0  0  0
   -7.9689  -14.7071   17.2304 H   0  0  0  0  0  0  0  0  0  0  0  0
  1  2  1  0
  2  3  1  0
  2  4  1  0
  4  5  2  0
  4  6  1  0
  2  7  1  0
  7  8  1  0
  8  9  2  0
  9 10  1  0
 10 11  1  0
 11 12  2  0
 11 13  1  0
 13 14  1  0
 14 15  1  0
 15 16  2  0
 15 17  1  0
 17 18  2  0
 18 19  1  0
 19 20  2  0
 20 21  1  0
 21 22  2  0
  9 23  1  0
 23 24  2  0
 24  7  1  0
 22 17  1  0
  1 25  1  0
  1 26  1  0
  1 27  1  0
  3 28  1  0
  3 29  1  0
  3 30  1  0
  6 31  1  0
  8 32  1  0
 10 33  1  0
 13 34  1  0
 13 35  1  0
 14 36  1  0
 18 37  1  0
 19 38  1  0
 20 39  1  0
 21 40  1  0
 22 41  1  0
 23 42  1  0
M  END
>  <Energy>  (394) 
59.323431498029485

>  <compound_id>  (394) 
51858

>  <target_id>  (394) 
1

>  <reference_id>  (394) 
66

>  <inspiration_ids>  (394) 
[96, 66]

>  <energy_score>  (394) 
-14.856721650632949

>  <distance_score>  (394) 
15.987266241812144

>  <path>  (394) 
/opt/xchem-fragalysis-2/maxwin/BulkDock/SCRATCH/511025/C51858-P66/C51858-P66.minimised.mol

>  <scratch_subdir>  (394) 
/opt/xchem-fragalysis-2/maxwin/BulkDock/SCRATCH/511025/C51858-P66

>  <fragmenstein_runtime>  (394) 
42.6109664440155

>  <fragmenstein_outcome>  (394) 
too moved

>  <fragmenstein_mode>  (394) 
expansion

>  <fragmenstein_error>  (394) 


$$$$
C51860-P96
     RDKit          3D

 42 43  0  0  0  0  0  0  0  0999 V2000
   -3.9474  -15.4600   29.8069 C   0  0  0  0  0  0  0  0  0  0  0  0
   -4.0391  -14.5100   28.4702 C   0  0  0  0  0  0  0  0  0  0  0  0
   -3.3574  -13.0968   29.1682 C   0  0  0  0  0  0  0  0  0  0  0  0
   -5.6255  -14.4028   28.8190 C   0  0  0  0  0  0  0  0  0  0  0  0
   -6.5433  -15.1225   28.4981 O   0  0  0  0  0  0  0  0  0  0  0  0
   -5.9135  -13.3470   29.6428 O   0  0  0  0  0  0  0  0  0  0  0  0
   -3.4313  -15.0707   26.8088 N   0  0  0  0  0  0  0  0  0  0  0  0
   -2.8544  -14.8773   25.1543 C   0  0  0  0  0  0  0  0  0  0  0  0
   -2.4415  -13.0917   24.9657 C   0  0  0  0  0  0  0  0  0  0  0  0
   -1.4751  -12.0040   23.7978 N   0  0  0  0  0  0  0  0  0  0  0  0
   -0.1067  -10.5875   24.1561 C   0  0  0  0  0  0  0  0  0  0  0  0
    0.2627  -10.1440   25.2308 O   0  0  0  0  0  0  0  0  0  0  0  0
    0.7696   -9.5177   22.6376 C   0  0  0  0  0  0  0  0  0  0  0  0
    0.9345   -7.7297   23.1390 C   0  0  0  0  0  0  0  0  0  0  0  0
    0.4831   -7.4508   24.4523 O   0  0  0  0  0  0  0  0  0  0  0  0
    1.9858   -9.1659   21.3438 C   0  0  0  0  0  0  0  0  0  0  0  0
    1.4040   -8.6146   20.1556 C   0  0  0  0  0  0  0  0  0  0  0  0
    2.1101   -7.8547   19.1811 C   0  0  0  0  0  0  0  0  0  0  0  0
    3.4491   -7.5403   19.3415 C   0  0  0  0  0  0  0  0  0  0  0  0
    4.0735   -7.9824   20.4867 C   0  0  0  0  0  0  0  0  0  0  0  0
    3.3602   -8.7574   21.4484 C   0  0  0  0  0  0  0  0  0  0  0  0
   -2.2663  -13.2346   26.3338 C   0  0  0  0  0  0  0  0  0  0  0  0
   -2.1256  -14.5586   26.4283 N   0  0  0  0  0  0  0  0  0  0  0  0
   -4.6471  -15.1546   30.6046 H   0  0  0  0  0  0  0  0  0  0  0  0
   -3.0185  -15.3554   30.3701 H   0  0  0  0  0  0  0  0  0  0  0  0
   -4.2161  -16.4888   29.6474 H   0  0  0  0  0  0  0  0  0  0  0  0
   -3.6148  -13.0791   30.2375 H   0  0  0  0  0  0  0  0  0  0  0  0
   -2.2739  -12.9972   29.1719 H   0  0  0  0  0  0  0  0  0  0  0  0
   -3.7515  -12.1482   28.7990 H   0  0  0  0  0  0  0  0  0  0  0  0
   -6.8697  -13.4072   29.8278 H   0  0  0  0  0  0  0  0  0  0  0  0
   -2.5616  -15.8143   24.6842 H   0  0  0  0  0  0  0  0  0  0  0  0
   -1.5012  -12.2149   22.8288 H   0  0  0  0  0  0  0  0  0  0  0  0
    0.1641   -9.6365   21.7414 H   0  0  0  0  0  0  0  0  0  0  0  0
    1.9277   -7.2794   23.0172 H   0  0  0  0  0  0  0  0  0  0  0  0
    0.4325   -7.0416   22.4312 H   0  0  0  0  0  0  0  0  0  0  0  0
    0.7373   -6.5395   24.6734 H   0  0  0  0  0  0  0  0  0  0  0  0
    0.3380   -8.7417   19.9646 H   0  0  0  0  0  0  0  0  0  0  0  0
    1.5775   -7.5041   18.2993 H   0  0  0  0  0  0  0  0  0  0  0  0
    3.9814   -6.9622   18.5937 H   0  0  0  0  0  0  0  0  0  0  0  0
    5.1231   -7.7588   20.6590 H   0  0  0  0  0  0  0  0  0  0  0  0
    4.0103   -9.0331   22.2716 H   0  0  0  0  0  0  0  0  0  0  0  0
   -1.9186  -12.6698   27.1528 H   0  0  0  0  0  0  0  0  0  0  0  0
  1  2  1  0
  2  3  1  0
  2  4  1  0
  4  5  2  0
  4  6  1  0
  2  7  1  0
  7  8  1  0
  8  9  2  0
  9 10  1  0
 10 11  1  0
 11 12  2  0
 11 13  1  0
 13 14  1  0
 14 15  1  0
 13 16  1  0
 16 17  2  0
 17 18  1  0
 18 19  2  0
 19 20  1  0
 20 21  2  0
  9 22  1  0
 22 23  2  0
 23  7  1  0
 21 16  1  0
  1 24  1  0
  1 25  1  0
  1 26  1  0
  3 27  1  0
  3 28  1  0
  3 29  1  0
  6 30  1  0
  8 31  1  0
 10 32  1  0
 13 33  1  0
 14 34  1  0
 14 35  1  0
 15 36  1  0
 17 37  1  0
 18 38  1  0
 19 39  1  0
 20 40  1  0
 21 41  1  0
 22 42  1  0
M  END
>  <Energy>  (395) 
872.87314309627129

>  <compound_id>  (395) 
51860

>  <target_id>  (395) 
1

>  <reference_id>  (395) 
96

>  <inspiration_ids>  (395) 
[96, 66]

>  <energy_score>  (395) 
768.705115594791

>  <distance_score>  (395) 
13.175103791901746

>  <path>  (395) 
/opt/xchem-fragalysis-2/maxwin/BulkDock/SCRATCH/511025/C51860-P96/C51860-P96.minimised.mol

>  <scratch_subdir>  (395) 
/opt/xchem-fragalysis-2/maxwin/BulkDock/SCRATCH/511025/C51860-P96

>  <fragmenstein_runtime>  (395) 
15.951452016830444

>  <fragmenstein_outcome>  (395) 
too moved

>  <fragmenstein_mode>  (395) 
expansion

>  <fragmenstein_error>  (395) 


$$$$
C51860-P66
     RDKit          3D

 42 43  0  0  0  0  0  0  0  0999 V2000
    1.0908  -21.0005   22.2285 C   0  0  0  0  0  0  0  0  0  0  0  0
    1.8022  -19.5880   21.4588 C   0  0  0  0  0  0  0  0  0  0  0  0
    2.5774  -20.1845   20.0604 C   0  0  0  0  0  0  0  0  0  0  0  0
    3.2122  -19.8264   22.4493 C   0  0  0  0  0  0  0  0  0  0  0  0
    4.3885  -19.7266   22.0995 O   0  0  0  0  0  0  0  0  0  0  0  0
    3.0470  -20.2655   23.7297 O   0  0  0  0  0  0  0  0  0  0  0  0
    0.4334  -18.1851   21.4626 N   0  0  0  0  0  0  0  0  0  0  0  0
    0.2831  -16.4817   21.3348 C   0  0  0  0  0  0  0  0  0  0  0  0
    1.0401  -15.9973   20.3524 C   0  0  0  0  0  0  0  0  0  0  0  0
    2.3054  -14.9114   19.9816 N   0  0  0  0  0  0  0  0  0  0  0  0
    2.9950  -14.5129   18.5135 C   0  0  0  0  0  0  0  0  0  0  0  0
    2.6884  -14.8512   17.3832 O   0  0  0  0  0  0  0  0  0  0  0  0
    4.4138  -13.5637   18.5645 C   0  0  0  0  0  0  0  0  0  0  0  0
    5.5703  -14.4772   18.0789 C   0  0  0  0  0  0  0  0  0  0  0  0
    6.8341  -14.0316   18.5822 O   0  0  0  0  0  0  0  0  0  0  0  0
    4.5472  -12.2179   17.7690 C   0  0  0  0  0  0  0  0  0  0  0  0
    4.3177  -12.0928   16.3951 C   0  0  0  0  0  0  0  0  0  0  0  0
    4.5537  -10.8756   15.7317 C   0  0  0  0  0  0  0  0  0  0  0  0
    5.0001   -9.7538   16.4283 C   0  0  0  0  0  0  0  0  0  0  0  0
    5.2563   -9.8550   17.7887 C   0  0  0  0  0  0  0  0  0  0  0  0
    5.0831  -11.0832   18.4324 C   0  0  0  0  0  0  0  0  0  0  0  0
    0.4045  -17.0335   19.8359 C   0  0  0  0  0  0  0  0  0  0  0  0
   -0.5434  -17.7610   20.4805 N   0  0  0  0  0  0  0  0  0  0  0  0
    1.8633  -21.7415   22.4699 H   0  0  0  0  0  0  0  0  0  0  0  0
    0.5742  -20.6990   23.1412 H   0  0  0  0  0  0  0  0  0  0  0  0
    0.3992  -21.5904   21.6169 H   0  0  0  0  0  0  0  0  0  0  0  0
    3.6581  -20.0218   20.0785 H   0  0  0  0  0  0  0  0  0  0  0  0
    2.2854  -19.7816   19.0844 H   0  0  0  0  0  0  0  0  0  0  0  0
    2.4570  -21.2764   20.0304 H   0  0  0  0  0  0  0  0  0  0  0  0
    3.9608  -20.3775   24.0595 H   0  0  0  0  0  0  0  0  0  0  0  0
   -0.3628  -15.9722   21.9691 H   0  0  0  0  0  0  0  0  0  0  0  0
    2.7597  -14.3868   20.7299 H   0  0  0  0  0  0  0  0  0  0  0  0
    4.5938  -13.2248   19.5896 H   0  0  0  0  0  0  0  0  0  0  0  0
    5.4438  -15.5121   18.4113 H   0  0  0  0  0  0  0  0  0  0  0  0
    5.6338  -14.5199   16.9855 H   0  0  0  0  0  0  0  0  0  0  0  0
    7.0464  -13.2081   18.1047 H   0  0  0  0  0  0  0  0  0  0  0  0
    3.9636  -12.9453   15.8168 H   0  0  0  0  0  0  0  0  0  0  0  0
    4.3707  -10.8044   14.6616 H   0  0  0  0  0  0  0  0  0  0  0  0
    5.1462   -8.8150   15.9015 H   0  0  0  0  0  0  0  0  0  0  0  0
    5.5850   -8.9917   18.3586 H   0  0  0  0  0  0  0  0  0  0  0  0
    5.3705  -11.1474   19.4802 H   0  0  0  0  0  0  0  0  0  0  0  0
    0.8942  -17.5107   18.9260 H   0  0  0  0  0  0  0  0  0  0  0  0
  1  2  1  0
  2  3  1  0
  2  4  1  0
  4  5  2  0
  4  6  1  0
  2  7  1  0
  7  8  1  0
  8  9  2  0
  9 10  1  0
 10 11  1  0
 11 12  2  0
 11 13  1  0
 13 14  1  0
 14 15  1  0
 13 16  1  0
 16 17  2  0
 17 18  1  0
 18 19  2  0
 19 20  1  0
 20 21  2  0
  9 22  1  0
 22 23  2  0
 23  7  1  0
 21 16  1  0
  1 24  1  0
  1 25  1  0
  1 26  1  0
  3 27  1  0
  3 28  1  0
  3 29  1  0
  6 30  1  0
  8 31  1  0
 10 32  1  0
 13 33  1  0
 14 34  1  0
 14 35  1  0
 15 36  1  0
 17 37  1  0
 18 38  1  0
 19 39  1  0
 20 40  1  0
 21 41  1  0
 22 42  1  0
M  END
>  <Energy>  (396) 
501.96608031448989

>  <compound_id>  (396) 
51860

>  <target_id>  (396) 
1

>  <reference_id>  (396) 
66

>  <inspiration_ids>  (396) 
[96, 66]

>  <energy_score>  (396) 
397.7980528129803

>  <distance_score>  (396) 
14.39102001121941

>  <path>  (396) 
/opt/xchem-fragalysis-2/maxwin/BulkDock/SCRATCH/511025/C51860-P66/C51860-P66.minimised.mol

>  <scratch_subdir>  (396) 
/opt/xchem-fragalysis-2/maxwin/BulkDock/SCRATCH/511025/C51860-P66

>  <fragmenstein_runtime>  (396) 
35.55810880661011

>  <fragmenstein_outcome>  (396) 
too moved

>  <fragmenstein_mode>  (396) 
expansion

>  <fragmenstein_error>  (396) 


$$$$
C51861-P96
     RDKit          3D

 44 45  0  0  0  0  0  0  0  0999 V2000
   -9.9702  -23.3371   25.7487 C   0  0  0  0  0  0  0  0  0  0  0  0
   -8.6381  -23.0519   26.7277 C   0  0  0  0  0  0  0  0  0  0  0  0
   -8.6987  -22.1462   28.0643 C   0  0  0  0  0  0  0  0  0  0  0  0
   -9.1054  -24.3549   27.8032 C   0  0  0  0  0  0  0  0  0  0  0  0
   -8.4149  -25.1544   28.4176 O   0  0  0  0  0  0  0  0  0  0  0  0
  -10.4448  -24.4006   28.0406 O   0  0  0  0  0  0  0  0  0  0  0  0
   -7.0934  -22.7198   25.5692 N   0  0  0  0  0  0  0  0  0  0  0  0
   -5.6265  -22.2530   25.6639 C   0  0  0  0  0  0  0  0  0  0  0  0
   -4.9090  -22.6223   24.4889 C   0  0  0  0  0  0  0  0  0  0  0  0
   -3.4808  -22.6811   24.3181 N   0  0  0  0  0  0  0  0  0  0  0  0
   -2.6292  -22.5328   23.0880 C   0  0  0  0  0  0  0  0  0  0  0  0
   -2.9403  -22.4075   21.9315 O   0  0  0  0  0  0  0  0  0  0  0  0
   -0.9761  -22.5782   23.4311 C   0  0  0  0  0  0  0  0  0  0  0  0
    0.0578  -21.6941   22.5173 C   0  0  0  0  0  0  0  0  0  0  0  0
    1.6957  -21.6754   22.7137 C   0  0  0  0  0  0  0  0  0  0  0  0
    2.7368  -20.7065   22.0419 C   0  0  0  0  0  0  0  0  0  0  0  0
    2.8673  -20.6352   20.6618 C   0  0  0  0  0  0  0  0  0  0  0  0
    3.9073  -19.8998   20.0709 C   0  0  0  0  0  0  0  0  0  0  0  0
    4.8073  -19.1322   20.8154 C   0  0  0  0  0  0  0  0  0  0  0  0
    4.7203  -19.1793   22.1902 C   0  0  0  0  0  0  0  0  0  0  0  0
    3.7413  -20.0069   22.7798 C   0  0  0  0  0  0  0  0  0  0  0  0
   -5.9797  -22.8988   23.6112 C   0  0  0  0  0  0  0  0  0  0  0  0
   -7.2207  -22.9150   24.1649 N   0  0  0  0  0  0  0  0  0  0  0  0
  -10.2319  -24.4017   25.7042 H   0  0  0  0  0  0  0  0  0  0  0  0
  -10.8474  -22.8163   26.1525 H   0  0  0  0  0  0  0  0  0  0  0  0
   -9.8389  -23.0638   24.6982 H   0  0  0  0  0  0  0  0  0  0  0  0
   -9.6812  -21.6643   28.1872 H   0  0  0  0  0  0  0  0  0  0  0  0
   -7.8627  -21.4402   28.0683 H   0  0  0  0  0  0  0  0  0  0  0  0
   -8.5734  -22.7093   28.9988 H   0  0  0  0  0  0  0  0  0  0  0  0
  -10.5502  -25.1370   28.6774 H   0  0  0  0  0  0  0  0  0  0  0  0
   -5.3325  -21.7860   26.5945 H   0  0  0  0  0  0  0  0  0  0  0  0
   -2.8870  -22.8464   25.1150 H   0  0  0  0  0  0  0  0  0  0  0  0
   -0.6928  -23.6314   23.3127 H   0  0  0  0  0  0  0  0  0  0  0  0
   -0.8289  -22.3261   24.4809 H   0  0  0  0  0  0  0  0  0  0  0  0
   -0.2901  -20.6642   22.6041 H   0  0  0  0  0  0  0  0  0  0  0  0
   -0.1009  -22.0528   21.4967 H   0  0  0  0  0  0  0  0  0  0  0  0
    2.0193  -22.6796   22.4007 H   0  0  0  0  0  0  0  0  0  0  0  0
    1.8783  -21.6816   23.7913 H   0  0  0  0  0  0  0  0  0  0  0  0
    2.2025  -21.2099   20.0209 H   0  0  0  0  0  0  0  0  0  0  0  0
    3.9947  -19.9631   18.9926 H   0  0  0  0  0  0  0  0  0  0  0  0
    5.5728  -18.5470   20.3188 H   0  0  0  0  0  0  0  0  0  0  0  0
    5.4275  -18.6398   22.8110 H   0  0  0  0  0  0  0  0  0  0  0  0
    3.7837  -20.1192   23.8608 H   0  0  0  0  0  0  0  0  0  0  0  0
   -5.9053  -23.1185   22.5529 H   0  0  0  0  0  0  0  0  0  0  0  0
  1  2  1  0
  2  3  1  0
  2  4  1  0
  4  5  2  0
  4  6  1  0
  2  7  1  0
  7  8  1  0
  8  9  2  0
  9 10  1  0
 10 11  1  0
 11 12  2  0
 11 13  1  0
 13 14  1  0
 14 15  1  0
 15 16  1  0
 16 17  2  0
 17 18  1  0
 18 19  2  0
 19 20  1  0
 20 21  2  0
  9 22  1  0
 22 23  2  0
 23  7  1  0
 21 16  1  0
  1 24  1  0
  1 25  1  0
  1 26  1  0
  3 27  1  0
  3 28  1  0
  3 29  1  0
  6 30  1  0
  8 31  1  0
 10 32  1  0
 13 33  1  0
 13 34  1  0
 14 35  1  0
 14 36  1  0
 15 37  1  0
 15 38  1  0
 17 39  1  0
 18 40  1  0
 19 41  1  0
 20 42  1  0
 21 43  1  0
 22 44  1  0
M  END
>  <Energy>  (397) 
243.32738440490695

>  <compound_id>  (397) 
51861

>  <target_id>  (397) 
1

>  <reference_id>  (397) 
96

>  <inspiration_ids>  (397) 
[96, 66]

>  <energy_score>  (397) 
194.31821013930153

>  <distance_score>  (397) 
16.400160659357194

>  <path>  (397) 
/opt/xchem-fragalysis-2/maxwin/BulkDock/SCRATCH/511025/C51861-P96/C51861-P96.minimised.mol

>  <scratch_subdir>  (397) 
/opt/xchem-fragalysis-2/maxwin/BulkDock/SCRATCH/511025/C51861-P96

>  <fragmenstein_runtime>  (397) 
32.847593784332275

>  <fragmenstein_outcome>  (397) 
too moved

>  <fragmenstein_mode>  (397) 
expansion

>  <fragmenstein_error>  (397) 


$$$$
C51861-P66
     RDKit          3D

 44 45  0  0  0  0  0  0  0  0999 V2000
   -4.5909  -19.6421   27.4252 C   0  0  0  0  0  0  0  0  0  0  0  0
   -6.2082  -19.5416   26.3939 C   0  0  0  0  0  0  0  0  0  0  0  0
   -7.9033  -18.7083   27.6570 C   0  0  0  0  0  0  0  0  0  0  0  0
   -4.9508  -20.9790   26.0320 C   0  0  0  0  0  0  0  0  0  0  0  0
   -4.8455  -22.0712   26.6003 O   0  0  0  0  0  0  0  0  0  0  0  0
   -4.1570  -20.7575   24.9458 O   0  0  0  0  0  0  0  0  0  0  0  0
   -6.1045  -18.7792   24.5200 N   0  0  0  0  0  0  0  0  0  0  0  0
   -6.5662  -17.2723   23.6611 C   0  0  0  0  0  0  0  0  0  0  0  0
   -5.4959  -15.7920   23.8709 C   0  0  0  0  0  0  0  0  0  0  0  0
   -3.7063  -15.5710   23.6333 N   0  0  0  0  0  0  0  0  0  0  0  0
   -2.4632  -15.0729   24.7082 C   0  0  0  0  0  0  0  0  0  0  0  0
   -2.4905  -14.8363   25.8939 O   0  0  0  0  0  0  0  0  0  0  0  0
   -0.8675  -14.6636   24.0431 C   0  0  0  0  0  0  0  0  0  0  0  0
    0.8807  -14.0661   24.0858 C   0  0  0  0  0  0  0  0  0  0  0  0
    2.5638  -13.0933   23.8222 C   0  0  0  0  0  0  0  0  0  0  0  0
    4.0887  -13.2950   23.2353 C   0  0  0  0  0  0  0  0  0  0  0  0
    4.5016  -12.8547   21.9763 C   0  0  0  0  0  0  0  0  0  0  0  0
    5.8299  -12.5364   21.6027 C   0  0  0  0  0  0  0  0  0  0  0  0
    6.8529  -12.6776   22.5151 C   0  0  0  0  0  0  0  0  0  0  0  0
    6.5328  -13.2089   23.7558 C   0  0  0  0  0  0  0  0  0  0  0  0
    5.1902  -13.5330   24.0933 C   0  0  0  0  0  0  0  0  0  0  0  0
   -5.8037  -17.6329   22.8544 C   0  0  0  0  0  0  0  0  0  0  0  0
   -6.3482  -19.0054   23.2098 N   0  0  0  0  0  0  0  0  0  0  0  0
   -4.4974  -20.6007   27.9685 H   0  0  0  0  0  0  0  0  0  0  0  0
   -3.5578  -19.8073   26.9977 H   0  0  0  0  0  0  0  0  0  0  0  0
   -4.4470  -18.7088   28.0151 H   0  0  0  0  0  0  0  0  0  0  0  0
   -7.6386  -17.7128   28.2179 H   0  0  0  0  0  0  0  0  0  0  0  0
   -8.7268  -18.0792   27.2159 H   0  0  0  0  0  0  0  0  0  0  0  0
   -8.3432  -19.3877   28.3406 H   0  0  0  0  0  0  0  0  0  0  0  0
   -3.6538  -21.5953   24.8436 H   0  0  0  0  0  0  0  0  0  0  0  0
   -7.5464  -17.1670   22.9241 H   0  0  0  0  0  0  0  0  0  0  0  0
   -3.3375  -15.7596   22.7624 H   0  0  0  0  0  0  0  0  0  0  0  0
   -1.0335  -13.8415   24.7158 H   0  0  0  0  0  0  0  0  0  0  0  0
   -0.9897  -14.7056   22.9769 H   0  0  0  0  0  0  0  0  0  0  0  0
    0.9300  -13.7968   25.1925 H   0  0  0  0  0  0  0  0  0  0  0  0
    1.4143  -14.7692   23.4804 H   0  0  0  0  0  0  0  0  0  0  0  0
    2.3001  -12.0478   23.7476 H   0  0  0  0  0  0  0  0  0  0  0  0
    2.9090  -13.3414   24.7889 H   0  0  0  0  0  0  0  0  0  0  0  0
    3.7875  -12.8587   21.1807 H   0  0  0  0  0  0  0  0  0  0  0  0
    6.0322  -12.2206   20.5814 H   0  0  0  0  0  0  0  0  0  0  0  0
    7.8777  -12.4430   22.2495 H   0  0  0  0  0  0  0  0  0  0  0  0
    7.3181  -13.3811   24.4883 H   0  0  0  0  0  0  0  0  0  0  0  0
    5.0183  -13.9211   25.0965 H   0  0  0  0  0  0  0  0  0  0  0  0
   -5.5575  -17.6371   21.7611 H   0  0  0  0  0  0  0  0  0  0  0  0
  1  2  1  0
  2  3  1  0
  2  4  1  0
  4  5  2  0
  4  6  1  0
  2  7  1  0
  7  8  1  0
  8  9  2  0
  9 10  1  0
 10 11  1  0
 11 12  2  0
 11 13  1  0
 13 14  1  0
 14 15  1  0
 15 16  1  0
 16 17  2  0
 17 18  1  0
 18 19  2  0
 19 20  1  0
 20 21  2  0
  9 22  1  0
 22 23  2  0
 23  7  1  0
 21 16  1  0
  1 24  1  0
  1 25  1  0
  1 26  1  0
  3 27  1  0
  3 28  1  0
  3 29  1  0
  6 30  1  0
  8 31  1  0
 10 32  1  0
 13 33  1  0
 13 34  1  0
 14 35  1  0
 14 36  1  0
 15 37  1  0
 15 38  1  0
 17 39  1  0
 18 40  1  0
 19 41  1  0
 20 42  1  0
 21 43  1  0
 22 44  1  0
M  END
>  <Energy>  (398) 
1393.5855602398365

>  <compound_id>  (398) 
51861

>  <target_id>  (398) 
1

>  <reference_id>  (398) 
66

>  <inspiration_ids>  (398) 
[96, 66]

>  <energy_score>  (398) 
1344.5763859742417

>  <distance_score>  (398) 
13.285029558078774

>  <path>  (398) 
/opt/xchem-fragalysis-2/maxwin/BulkDock/SCRATCH/511025/C51861-P66/C51861-P66.minimised.mol

>  <scratch_subdir>  (398) 
/opt/xchem-fragalysis-2/maxwin/BulkDock/SCRATCH/511025/C51861-P66

>  <fragmenstein_runtime>  (398) 
34.63607430458069

>  <fragmenstein_outcome>  (398) 
too moved

>  <fragmenstein_mode>  (398) 
expansion

>  <fragmenstein_error>  (398) 


$$$$
C51862-P96
     RDKit          3D

 44 45  0  0  0  0  0  0  0  0999 V2000
    1.1593  -11.2073   22.4280 C   0  0  0  0  0  0  0  0  0  0  0  0
    0.1825  -11.7901   24.0403 C   0  0  0  0  0  0  0  0  0  0  0  0
   -1.8856  -12.6819   24.4319 C   0  0  0  0  0  0  0  0  0  0  0  0
   -2.6676  -13.8410   26.0861 C   0  0  0  0  0  0  0  0  0  0  0  0
   -2.6230  -13.1798   27.1204 O   0  0  0  0  0  0  0  0  0  0  0  0
   -3.4738  -15.5731   25.7346 N   0  0  0  0  0  0  0  0  0  0  0  0
   -4.6957  -16.8894   26.8259 C   0  0  0  0  0  0  0  0  0  0  0  0
   -5.0188  -18.7327   26.1522 C   0  0  0  0  0  0  0  0  0  0  0  0
   -5.4020  -20.0538   27.2272 N   0  0  0  0  0  0  0  0  0  0  0  0
   -7.0285  -19.6321   27.4749 N   0  0  0  0  0  0  0  0  0  0  0  0
   -8.6561  -20.6527   28.1694 C   0  0  0  0  0  0  0  0  0  0  0  0
  -10.3902  -21.1914   27.4997 C   0  0  0  0  0  0  0  0  0  0  0  0
   -8.1810  -22.0259   28.2359 C   0  0  0  0  0  0  0  0  0  0  0  0
   -9.9508  -20.4022   29.4012 C   0  0  0  0  0  0  0  0  0  0  0  0
  -10.4647  -21.3697   30.0103 O   0  0  0  0  0  0  0  0  0  0  0  0
  -10.4312  -19.2586   29.7800 O   0  0  0  0  0  0  0  0  0  0  0  0
   -5.9511  -18.3379   26.5253 C   0  0  0  0  0  0  0  0  0  0  0  0
    2.1486  -11.8644   24.5076 C   0  0  0  0  0  0  0  0  0  0  0  0
    3.1174  -11.8919   25.4246 C   0  0  0  0  0  0  0  0  0  0  0  0
    4.3137  -10.6575   25.6869 C   0  0  0  0  0  0  0  0  0  0  0  0
    5.1537  -10.0805   24.7705 C   0  0  0  0  0  0  0  0  0  0  0  0
    4.8547  -10.8340   23.7002 C   0  0  0  0  0  0  0  0  0  0  0  0
    3.4871  -11.9497   23.6098 C   0  0  0  0  0  0  0  0  0  0  0  0
    1.5116  -12.0966   21.8918 H   0  0  0  0  0  0  0  0  0  0  0  0
    0.7449  -10.4521   21.7653 H   0  0  0  0  0  0  0  0  0  0  0  0
    2.1538  -10.8610   22.3155 H   0  0  0  0  0  0  0  0  0  0  0  0
   -0.0234  -12.5456   23.1755 H   0  0  0  0  0  0  0  0  0  0  0  0
   -2.0637  -13.3111   23.5287 H   0  0  0  0  0  0  0  0  0  0  0  0
   -2.6467  -11.9282   24.1729 H   0  0  0  0  0  0  0  0  0  0  0  0
   -3.2545  -15.8716   24.7989 H   0  0  0  0  0  0  0  0  0  0  0  0
   -4.4521  -19.0888   25.2667 H   0  0  0  0  0  0  0  0  0  0  0  0
  -10.8378  -20.4502   26.8701 H   0  0  0  0  0  0  0  0  0  0  0  0
  -11.2148  -21.4494   28.1765 H   0  0  0  0  0  0  0  0  0  0  0  0
  -10.3510  -22.1683   26.9847 H   0  0  0  0  0  0  0  0  0  0  0  0
   -8.3569  -22.6206   29.1384 H   0  0  0  0  0  0  0  0  0  0  0  0
   -7.1553  -21.7786   27.9747 H   0  0  0  0  0  0  0  0  0  0  0  0
   -8.6334  -22.6716   27.4760 H   0  0  0  0  0  0  0  0  0  0  0  0
  -10.1206  -18.4461   29.3203 H   0  0  0  0  0  0  0  0  0  0  0  0
   -6.7520  -18.3834   25.8623 H   0  0  0  0  0  0  0  0  0  0  0  0
    3.2240  -12.7704   26.0506 H   0  0  0  0  0  0  0  0  0  0  0  0
    4.4332  -10.2726   26.7050 H   0  0  0  0  0  0  0  0  0  0  0  0
    5.8940   -9.3180   24.8948 H   0  0  0  0  0  0  0  0  0  0  0  0
    5.4557  -10.4841   22.8513 H   0  0  0  0  0  0  0  0  0  0  0  0
    3.4138  -12.5804   22.7181 H   0  0  0  0  0  0  0  0  0  0  0  0
  1  2  1  0
  2  3  1  0
  3  4  1  0
  4  5  2  0
  4  6  1  0
  6  7  1  0
  7  8  1  0
  8  9  2  0
  9 10  1  0
 10 11  1  0
 11 12  1  0
 11 13  1  0
 11 14  1  0
 14 15  2  0
 14 16  1  0
 10 17  1  0
  2 18  1  0
 18 19  2  0
 19 20  1  0
 20 21  2  0
 21 22  1  0
 22 23  2  0
 17  7  2  0
 23 18  1  0
  1 24  1  0
  1 25  1  0
  1 26  1  0
  2 27  1  0
  3 28  1  0
  3 29  1  0
  6 30  1  0
  8 31  1  0
 12 32  1  0
 12 33  1  0
 12 34  1  0
 13 35  1  0
 13 36  1  0
 13 37  1  0
 16 38  1  0
 17 39  1  0
 19 40  1  0
 20 41  1  0
 21 42  1  0
 22 43  1  0
 23 44  1  0
M  END
>  <Energy>  (399) 
2063.4691127425713

>  <compound_id>  (399) 
51862

>  <target_id>  (399) 
1

>  <reference_id>  (399) 
96

>  <inspiration_ids>  (399) 
[96, 66]

>  <energy_score>  (399) 
2000.6038279724007

>  <distance_score>  (399) 
12.960502275337578

>  <path>  (399) 
/opt/xchem-fragalysis-2/maxwin/BulkDock/SCRATCH/511025/C51862-P96/C51862-P96.minimised.mol

>  <scratch_subdir>  (399) 
/opt/xchem-fragalysis-2/maxwin/BulkDock/SCRATCH/511025/C51862-P96

>  <fragmenstein_runtime>  (399) 
20.724318027496338

>  <fragmenstein_outcome>  (399) 
too moved

>  <fragmenstein_mode>  (399) 
expansion

>  <fragmenstein_error>  (399) 


$$$$
C51862-P66
     RDKit          3D

 44 45  0  0  0  0  0  0  0  0999 V2000
    2.6068   -9.0437   21.9006 C   0  0  0  0  0  0  0  0  0  0  0  0
    3.2734  -10.6638   22.7742 C   0  0  0  0  0  0  0  0  0  0  0  0
    2.0170  -12.1128   23.7496 C   0  0  0  0  0  0  0  0  0  0  0  0
    0.8245  -13.8947   23.9722 C   0  0  0  0  0  0  0  0  0  0  0  0
    1.4004  -14.8151   23.4307 O   0  0  0  0  0  0  0  0  0  0  0  0
   -0.9033  -13.8517   24.8747 N   0  0  0  0  0  0  0  0  0  0  0  0
   -2.0915  -15.1271   25.2962 C   0  0  0  0  0  0  0  0  0  0  0  0
   -2.1321  -15.3490   27.1404 C   0  0  0  0  0  0  0  0  0  0  0  0
   -2.5187  -16.5111   27.6870 N   0  0  0  0  0  0  0  0  0  0  0  0
   -2.3501  -17.4595   26.8006 N   0  0  0  0  0  0  0  0  0  0  0  0
   -2.2607  -19.0317   27.2522 C   0  0  0  0  0  0  0  0  0  0  0  0
   -0.8757  -19.3099   27.9959 C   0  0  0  0  0  0  0  0  0  0  0  0
   -3.3634  -19.2176   28.2583 C   0  0  0  0  0  0  0  0  0  0  0  0
   -2.6345  -20.4284   26.5255 C   0  0  0  0  0  0  0  0  0  0  0  0
   -2.1120  -21.4771   26.9221 O   0  0  0  0  0  0  0  0  0  0  0  0
   -3.5664  -20.5415   25.5715 O   0  0  0  0  0  0  0  0  0  0  0  0
   -2.6171  -16.5808   25.3822 C   0  0  0  0  0  0  0  0  0  0  0  0
    4.9471   -9.6862   22.8608 C   0  0  0  0  0  0  0  0  0  0  0  0
    6.2178  -10.2651   23.1159 C   0  0  0  0  0  0  0  0  0  0  0  0
    7.4651   -9.6277   22.8635 C   0  0  0  0  0  0  0  0  0  0  0  0
    7.5367   -8.3246   22.4063 C   0  0  0  0  0  0  0  0  0  0  0  0
    6.3525   -7.6346   22.2811 C   0  0  0  0  0  0  0  0  0  0  0  0
    5.1140   -8.2856   22.5242 C   0  0  0  0  0  0  0  0  0  0  0  0
    3.2266   -8.5101   21.1729 H   0  0  0  0  0  0  0  0  0  0  0  0
    2.4256   -8.2351   22.6348 H   0  0  0  0  0  0  0  0  0  0  0  0
    1.6442   -9.2062   21.3741 H   0  0  0  0  0  0  0  0  0  0  0  0
    4.0340  -11.3617   22.3731 H   0  0  0  0  0  0  0  0  0  0  0  0
    1.8383  -11.7676   24.7337 H   0  0  0  0  0  0  0  0  0  0  0  0
    2.9092  -12.7652   23.8304 H   0  0  0  0  0  0  0  0  0  0  0  0
   -1.0721  -12.9786   25.2902 H   0  0  0  0  0  0  0  0  0  0  0  0
   -1.7865  -14.7289   27.9291 H   0  0  0  0  0  0  0  0  0  0  0  0
   -0.9980  -19.4574   29.0725 H   0  0  0  0  0  0  0  0  0  0  0  0
   -0.3855  -20.2720   27.7936 H   0  0  0  0  0  0  0  0  0  0  0  0
   -0.1308  -18.5471   27.7455 H   0  0  0  0  0  0  0  0  0  0  0  0
   -3.0069  -19.6919   29.1835 H   0  0  0  0  0  0  0  0  0  0  0  0
   -3.9572  -18.3215   28.4752 H   0  0  0  0  0  0  0  0  0  0  0  0
   -4.1004  -19.9019   27.8244 H   0  0  0  0  0  0  0  0  0  0  0  0
   -4.1134  -19.7327   25.5702 H   0  0  0  0  0  0  0  0  0  0  0  0
   -2.2857  -17.4890   25.0501 H   0  0  0  0  0  0  0  0  0  0  0  0
    6.3311  -11.2091   23.6261 H   0  0  0  0  0  0  0  0  0  0  0  0
    8.3854  -10.1726   23.0689 H   0  0  0  0  0  0  0  0  0  0  0  0
    8.4932   -7.8451   22.2274 H   0  0  0  0  0  0  0  0  0  0  0  0
    6.3574   -6.5826   22.0080 H   0  0  0  0  0  0  0  0  0  0  0  0
    4.2859   -7.5873   22.4592 H   0  0  0  0  0  0  0  0  0  0  0  0
  1  2  1  0
  2  3  1  0
  3  4  1  0
  4  5  2  0
  4  6  1  0
  6  7  1  0
  7  8  1  0
  8  9  2  0
  9 10  1  0
 10 11  1  0
 11 12  1  0
 11 13  1  0
 11 14  1  0
 14 15  2  0
 14 16  1  0
 10 17  1  0
  2 18  1  0
 18 19  2  0
 19 20  1  0
 20 21  2  0
 21 22  1  0
 22 23  2  0
 17  7  2  0
 23 18  1  0
  1 24  1  0
  1 25  1  0
  1 26  1  0
  2 27  1  0
  3 28  1  0
  3 29  1  0
  6 30  1  0
  8 31  1  0
 12 32  1  0
 12 33  1  0
 12 34  1  0
 13 35  1  0
 13 36  1  0
 13 37  1  0
 16 38  1  0
 17 39  1  0
 19 40  1  0
 20 41  1  0
 21 42  1  0
 22 43  1  0
 23 44  1  0
M  END
>  <Energy>  (400) 
838.49945407176574

>  <compound_id>  (400) 
51862

>  <target_id>  (400) 
1

>  <reference_id>  (400) 
66

>  <inspiration_ids>  (400) 
[96, 66]

>  <energy_score>  (400) 
775.6341693016051

>  <distance_score>  (400) 
12.164429210143313

>  <path>  (400) 
/opt/xchem-fragalysis-2/maxwin/BulkDock/SCRATCH/511025/C51862-P66/C51862-P66.minimised.mol

>  <scratch_subdir>  (400) 
/opt/xchem-fragalysis-2/maxwin/BulkDock/SCRATCH/511025/C51862-P66

>  <fragmenstein_runtime>  (400) 
30.858010053634644

>  <fragmenstein_outcome>  (400) 
too moved

>  <fragmenstein_mode>  (400) 
expansion

>  <fragmenstein_error>  (400) 


$$$$
C51863-P96
     RDKit          3D

 42 43  0  0  0  0  0  0  0  0999 V2000
   -6.7721  -13.8070   18.5853 C   0  0  0  0  0  0  0  0  0  0  0  0
   -5.5175  -13.8535   19.4708 C   0  0  0  0  0  0  0  0  0  0  0  0
   -4.2224  -13.6635   18.5453 C   0  0  0  0  0  0  0  0  0  0  0  0
   -3.8058  -12.1583   18.1392 C   0  0  0  0  0  0  0  0  0  0  0  0
   -4.3903  -11.2387   18.6481 O   0  0  0  0  0  0  0  0  0  0  0  0
   -2.6443  -12.1725   17.2243 N   0  0  0  0  0  0  0  0  0  0  0  0
   -1.8203  -11.1200   16.7529 C   0  0  0  0  0  0  0  0  0  0  0  0
   -0.6771  -11.2529   15.9024 C   0  0  0  0  0  0  0  0  0  0  0  0
    0.0527  -10.1383   15.7774 N   0  0  0  0  0  0  0  0  0  0  0  0
   -0.6074   -9.2247   16.5343 N   0  0  0  0  0  0  0  0  0  0  0  0
   -0.0844   -7.8381   16.5707 C   0  0  0  0  0  0  0  0  0  0  0  0
   -0.1621   -7.2336   15.1510 C   0  0  0  0  0  0  0  0  0  0  0  0
    1.4135   -7.7785   17.0281 C   0  0  0  0  0  0  0  0  0  0  0  0
   -0.8965   -6.9369   17.4971 C   0  0  0  0  0  0  0  0  0  0  0  0
   -0.5089   -6.3814   18.5139 O   0  0  0  0  0  0  0  0  0  0  0  0
   -2.1649   -6.7101   17.0864 O   0  0  0  0  0  0  0  0  0  0  0  0
   -1.7593   -9.7754   17.0937 C   0  0  0  0  0  0  0  0  0  0  0  0
   -5.5966  -15.0196   20.3832 N   0  0  0  0  0  0  0  0  0  0  0  0
   -5.8601  -14.9341   21.7399 C   0  0  0  0  0  0  0  0  0  0  0  0
   -6.0555  -16.2032   22.2376 C   0  0  0  0  0  0  0  0  0  0  0  0
   -5.9154  -17.1040   21.1596 C   0  0  0  0  0  0  0  0  0  0  0  0
   -5.6370  -16.3516   20.0340 C   0  0  0  0  0  0  0  0  0  0  0  0
   -6.7974  -14.6473   17.8829 H   0  0  0  0  0  0  0  0  0  0  0  0
   -6.8038  -12.8798   18.0036 H   0  0  0  0  0  0  0  0  0  0  0  0
   -7.6837  -13.8530   19.1917 H   0  0  0  0  0  0  0  0  0  0  0  0
   -5.5930  -12.9844   20.1302 H   0  0  0  0  0  0  0  0  0  0  0  0
   -4.3483  -14.2377   17.6196 H   0  0  0  0  0  0  0  0  0  0  0  0
   -3.3545  -14.0724   19.0692 H   0  0  0  0  0  0  0  0  0  0  0  0
   -2.3631  -13.1329   17.0584 H   0  0  0  0  0  0  0  0  0  0  0  0
   -0.3275  -12.1490   15.4059 H   0  0  0  0  0  0  0  0  0  0  0  0
    0.1083   -6.1711   15.1577 H   0  0  0  0  0  0  0  0  0  0  0  0
   -1.1732   -7.3128   14.7339 H   0  0  0  0  0  0  0  0  0  0  0  0
    0.5149   -7.7451   14.4570 H   0  0  0  0  0  0  0  0  0  0  0  0
    1.5275   -8.2217   18.0242 H   0  0  0  0  0  0  0  0  0  0  0  0
    2.0631   -8.3330   16.3421 H   0  0  0  0  0  0  0  0  0  0  0  0
    1.7732   -6.7445   17.0757 H   0  0  0  0  0  0  0  0  0  0  0  0
   -2.5339   -6.1136   17.7726 H   0  0  0  0  0  0  0  0  0  0  0  0
   -2.3985   -9.1948   17.7430 H   0  0  0  0  0  0  0  0  0  0  0  0
   -5.8963  -13.9714   22.2320 H   0  0  0  0  0  0  0  0  0  0  0  0
   -6.2809  -16.4489   23.2668 H   0  0  0  0  0  0  0  0  0  0  0  0
   -6.0090  -18.1817   21.1889 H   0  0  0  0  0  0  0  0  0  0  0  0
   -5.4707  -16.6571   19.0097 H   0  0  0  0  0  0  0  0  0  0  0  0
  1  2  1  0
  2  3  1  0
  3  4  1  0
  4  5  2  0
  4  6  1  0
  6  7  1  0
  7  8  1  0
  8  9  2  0
  9 10  1  0
 10 11  1  0
 11 12  1  0
 11 13  1  0
 11 14  1  0
 14 15  2  0
 14 16  1  0
 10 17  1  0
  2 18  1  0
 18 19  1  0
 19 20  2  0
 20 21  1  0
 21 22  2  0
 17  7  2  0
 22 18  1  0
  1 23  1  0
  1 24  1  0
  1 25  1  0
  2 26  1  0
  3 27  1  0
  3 28  1  0
  6 29  1  0
  8 30  1  0
 12 31  1  0
 12 32  1  0
 12 33  1  0
 13 34  1  0
 13 35  1  0
 13 36  1  0
 16 37  1  0
 17 38  1  0
 19 39  1  0
 20 40  1  0
 21 41  1  0
 22 42  1  0
M  END
>  <Energy>  (401) 
13.203708814107937

>  <compound_id>  (401) 
51863

>  <target_id>  (401) 
1

>  <reference_id>  (401) 
96

>  <inspiration_ids>  (401) 
[96, 66]

>  <energy_score>  (401) 
-19.55641205448933

>  <distance_score>  (401) 
15.93331924803947

>  <path>  (401) 
/opt/xchem-fragalysis-2/maxwin/BulkDock/SCRATCH/511025/C51863-P96/C51863-P96.minimised.mol

>  <scratch_subdir>  (401) 
/opt/xchem-fragalysis-2/maxwin/BulkDock/SCRATCH/511025/C51863-P96

>  <fragmenstein_runtime>  (401) 
106.03279614448547

>  <fragmenstein_outcome>  (401) 
too moved

>  <fragmenstein_mode>  (401) 
expansion

>  <fragmenstein_error>  (401) 


$$$$
C51863-P66
     RDKit          3D

 42 43  0  0  0  0  0  0  0  0999 V2000
    1.4473  -18.7606   19.7886 C   0  0  0  0  0  0  0  0  0  0  0  0
    0.0992  -18.0430   19.5569 C   0  0  0  0  0  0  0  0  0  0  0  0
    0.1107  -17.6002   18.0392 C   0  0  0  0  0  0  0  0  0  0  0  0
    0.6131  -16.1520   17.5925 C   0  0  0  0  0  0  0  0  0  0  0  0
   -0.2614  -15.3881   17.2748 O   0  0  0  0  0  0  0  0  0  0  0  0
    2.0706  -16.0018   17.5572 N   0  0  0  0  0  0  0  0  0  0  0  0
    2.8755  -14.8947   17.2313 C   0  0  0  0  0  0  0  0  0  0  0  0
    2.5613  -13.6408   16.6410 C   0  0  0  0  0  0  0  0  0  0  0  0
    3.6001  -12.7894   16.5581 N   0  0  0  0  0  0  0  0  0  0  0  0
    4.6311  -13.4869   17.0879 N   0  0  0  0  0  0  0  0  0  0  0  0
    5.9981  -12.9300   17.1323 C   0  0  0  0  0  0  0  0  0  0  0  0
    6.7959  -13.4970   15.9407 C   0  0  0  0  0  0  0  0  0  0  0  0
    6.0836  -11.3730   17.0437 C   0  0  0  0  0  0  0  0  0  0  0  0
    6.6726  -13.3913   18.4263 C   0  0  0  0  0  0  0  0  0  0  0  0
    7.2807  -14.4411   18.5943 O   0  0  0  0  0  0  0  0  0  0  0  0
    6.5234  -12.5509   19.4713 O   0  0  0  0  0  0  0  0  0  0  0  0
    4.2419  -14.7792   17.4172 C   0  0  0  0  0  0  0  0  0  0  0  0
   -1.0534  -18.8795   19.9955 N   0  0  0  0  0  0  0  0  0  0  0  0
   -1.0217  -20.1745   20.4766 C   0  0  0  0  0  0  0  0  0  0  0  0
   -2.2874  -20.5382   20.8823 C   0  0  0  0  0  0  0  0  0  0  0  0
   -3.1321  -19.4320   20.6673 C   0  0  0  0  0  0  0  0  0  0  0  0
   -2.3533  -18.4315   20.1216 C   0  0  0  0  0  0  0  0  0  0  0  0
    1.5731  -19.5983   19.0918 H   0  0  0  0  0  0  0  0  0  0  0  0
    1.5449  -19.1789   20.7924 H   0  0  0  0  0  0  0  0  0  0  0  0
    2.2868  -18.0782   19.6352 H   0  0  0  0  0  0  0  0  0  0  0  0
    0.0498  -17.1489   20.1879 H   0  0  0  0  0  0  0  0  0  0  0  0
   -0.9209  -17.6654   17.6645 H   0  0  0  0  0  0  0  0  0  0  0  0
    0.6674  -18.3250   17.4303 H   0  0  0  0  0  0  0  0  0  0  0  0
    2.4964  -16.8141   17.9769 H   0  0  0  0  0  0  0  0  0  0  0  0
    1.5941  -13.3199   16.2741 H   0  0  0  0  0  0  0  0  0  0  0  0
    6.8201  -14.5933   15.9500 H   0  0  0  0  0  0  0  0  0  0  0  0
    6.3538  -13.1896   14.9858 H   0  0  0  0  0  0  0  0  0  0  0  0
    7.8360  -13.1512   15.9604 H   0  0  0  0  0  0  0  0  0  0  0  0
    7.1150  -11.0355   17.1903 H   0  0  0  0  0  0  0  0  0  0  0  0
    5.4590  -10.8942   17.8047 H   0  0  0  0  0  0  0  0  0  0  0  0
    5.7411  -11.0134   16.0669 H   0  0  0  0  0  0  0  0  0  0  0  0
    6.8753  -13.0523   20.2355 H   0  0  0  0  0  0  0  0  0  0  0  0
    4.9610  -15.4819   17.8130 H   0  0  0  0  0  0  0  0  0  0  0  0
   -0.1092  -20.7534   20.4849 H   0  0  0  0  0  0  0  0  0  0  0  0
   -2.5669  -21.5003   21.2913 H   0  0  0  0  0  0  0  0  0  0  0  0
   -4.1912  -19.3607   20.8771 H   0  0  0  0  0  0  0  0  0  0  0  0
   -2.6113  -17.4206   19.8284 H   0  0  0  0  0  0  0  0  0  0  0  0
  1  2  1  0
  2  3  1  0
  3  4  1  0
  4  5  2  0
  4  6  1  0
  6  7  1  0
  7  8  1  0
  8  9  2  0
  9 10  1  0
 10 11  1  0
 11 12  1  0
 11 13  1  0
 11 14  1  0
 14 15  2  0
 14 16  1  0
 10 17  1  0
  2 18  1  0
 18 19  1  0
 19 20  2  0
 20 21  1  0
 21 22  2  0
 17  7  2  0
 22 18  1  0
  1 23  1  0
  1 24  1  0
  1 25  1  0
  2 26  1  0
  3 27  1  0
  3 28  1  0
  6 29  1  0
  8 30  1  0
 12 31  1  0
 12 32  1  0
 12 33  1  0
 13 34  1  0
 13 35  1  0
 13 36  1  0
 16 37  1  0
 17 38  1  0
 19 39  1  0
 20 40  1  0
 21 41  1  0
 22 42  1  0
M  END
>  <Energy>  (402) 
16.076615386800842

>  <compound_id>  (402) 
51863

>  <target_id>  (402) 
1

>  <reference_id>  (402) 
66

>  <inspiration_ids>  (402) 
[96, 66]

>  <energy_score>  (402) 
-16.683505481795862

>  <distance_score>  (402) 
15.57693248819606

>  <path>  (402) 
/opt/xchem-fragalysis-2/maxwin/BulkDock/SCRATCH/511025/C51863-P66/C51863-P66.minimised.mol

>  <scratch_subdir>  (402) 
/opt/xchem-fragalysis-2/maxwin/BulkDock/SCRATCH/511025/C51863-P66

>  <fragmenstein_runtime>  (402) 
89.12772250175476

>  <fragmenstein_outcome>  (402) 
too moved

>  <fragmenstein_mode>  (402) 
expansion

>  <fragmenstein_error>  (402) 


$$$$
C51865-P96
     RDKit          3D

 42 43  0  0  0  0  0  0  0  0999 V2000
   -6.6976  -13.7925   26.8182 C   0  0  0  0  0  0  0  0  0  0  0  0
   -5.9003  -12.4914   26.6452 C   0  0  0  0  0  0  0  0  0  0  0  0
   -6.8885  -11.3628   26.2937 C   0  0  0  0  0  0  0  0  0  0  0  0
   -5.2049  -12.2555   27.9871 C   0  0  0  0  0  0  0  0  0  0  0  0
   -4.4293  -13.0220   28.5417 O   0  0  0  0  0  0  0  0  0  0  0  0
   -5.5544  -11.1173   28.6240 O   0  0  0  0  0  0  0  0  0  0  0  0
   -4.8863  -12.5763   25.5822 N   0  0  0  0  0  0  0  0  0  0  0  0
   -4.9002  -13.3276   24.4376 C   0  0  0  0  0  0  0  0  0  0  0  0
   -3.9007  -12.8101   23.6357 C   0  0  0  0  0  0  0  0  0  0  0  0
   -3.3157  -11.7561   24.3693 C   0  0  0  0  0  0  0  0  0  0  0  0
   -2.3165  -10.8692   24.0431 N   0  0  0  0  0  0  0  0  0  0  0  0
   -1.4169  -10.8188   22.8913 C   0  0  0  0  0  0  0  0  0  0  0  0
   -1.3752  -11.4945   21.8987 O   0  0  0  0  0  0  0  0  0  0  0  0
   -0.4096   -9.6335   23.0933 C   0  0  0  0  0  0  0  0  0  0  0  0
    0.6130   -9.3134   22.0945 N   0  0  0  0  0  0  0  0  0  0  0  0
    1.6316   -8.2915   22.0787 C   0  0  0  0  0  0  0  0  0  0  0  0
    1.9513   -7.4944   22.9139 O   0  0  0  0  0  0  0  0  0  0  0  0
    2.4652   -8.1915   20.8116 C   0  0  0  0  0  0  0  0  0  0  0  0
    2.9273   -6.9204   20.3935 C   0  0  0  0  0  0  0  0  0  0  0  0
    3.7381   -6.7699   19.2586 C   0  0  0  0  0  0  0  0  0  0  0  0
    4.1202   -7.8954   18.5344 C   0  0  0  0  0  0  0  0  0  0  0  0
    3.7043   -9.1620   18.9570 C   0  0  0  0  0  0  0  0  0  0  0  0
    2.8915   -9.3113   20.0919 C   0  0  0  0  0  0  0  0  0  0  0  0
   -3.9060  -11.6429   25.5629 N   0  0  0  0  0  0  0  0  0  0  0  0
   -6.0308  -14.6490   26.9660 H   0  0  0  0  0  0  0  0  0  0  0  0
   -7.3524  -13.7385   27.6959 H   0  0  0  0  0  0  0  0  0  0  0  0
   -7.3325  -13.9931   25.9489 H   0  0  0  0  0  0  0  0  0  0  0  0
   -7.6718  -11.2655   27.0544 H   0  0  0  0  0  0  0  0  0  0  0  0
   -6.3842  -10.3922   26.2161 H   0  0  0  0  0  0  0  0  0  0  0  0
   -7.3802  -11.5511   25.3319 H   0  0  0  0  0  0  0  0  0  0  0  0
   -4.9889  -11.1192   29.4255 H   0  0  0  0  0  0  0  0  0  0  0  0
   -5.6317  -14.0962   24.2439 H   0  0  0  0  0  0  0  0  0  0  0  0
   -3.6585  -13.1078   22.6268 H   0  0  0  0  0  0  0  0  0  0  0  0
   -2.0077  -10.1998   24.7345 H   0  0  0  0  0  0  0  0  0  0  0  0
   -0.9976   -8.7171   23.2221 H   0  0  0  0  0  0  0  0  0  0  0  0
    0.1314   -9.8077   24.0307 H   0  0  0  0  0  0  0  0  0  0  0  0
    0.5670   -9.7490   21.1793 H   0  0  0  0  0  0  0  0  0  0  0  0
    2.6397   -6.0363   20.9612 H   0  0  0  0  0  0  0  0  0  0  0  0
    4.0550   -5.7784   18.9443 H   0  0  0  0  0  0  0  0  0  0  0  0
    4.7313   -7.7929   17.6406 H   0  0  0  0  0  0  0  0  0  0  0  0
    4.0176  -10.0437   18.4010 H   0  0  0  0  0  0  0  0  0  0  0  0
    2.6172  -10.3131   20.4128 H   0  0  0  0  0  0  0  0  0  0  0  0
  1  2  1  0
  2  3  1  0
  2  4  1  0
  4  5  2  0
  4  6  1  0
  2  7  1  0
  7  8  1  0
  8  9  2  0
  9 10  1  0
 10 11  1  0
 11 12  1  0
 12 13  2  0
 12 14  1  0
 14 15  1  0
 15 16  1  0
 16 17  2  0
 16 18  1  0
 18 19  2  0
 19 20  1  0
 20 21  2  0
 21 22  1  0
 22 23  2  0
 10 24  2  0
 24  7  1  0
 23 18  1  0
  1 25  1  0
  1 26  1  0
  1 27  1  0
  3 28  1  0
  3 29  1  0
  3 30  1  0
  6 31  1  0
  8 32  1  0
  9 33  1  0
 11 34  1  0
 14 35  1  0
 14 36  1  0
 15 37  1  0
 19 38  1  0
 20 39  1  0
 21 40  1  0
 22 41  1  0
 23 42  1  0
M  END
>  <Energy>  (403) 
15.435647691808239

>  <compound_id>  (403) 
51865

>  <target_id>  (403) 
1

>  <reference_id>  (403) 
96

>  <inspiration_ids>  (403) 
[96, 66]

>  <energy_score>  (403) 
-50.89010154635628

>  <distance_score>  (403) 
14.510010475568935

>  <path>  (403) 
/opt/xchem-fragalysis-2/maxwin/BulkDock/SCRATCH/511025/C51865-P96/C51865-P96.minimised.mol

>  <scratch_subdir>  (403) 
/opt/xchem-fragalysis-2/maxwin/BulkDock/SCRATCH/511025/C51865-P96

>  <fragmenstein_runtime>  (403) 
39.6004683971405

>  <fragmenstein_outcome>  (403) 
too moved

>  <fragmenstein_mode>  (403) 
expansion

>  <fragmenstein_error>  (403) 


$$$$
C51865-P66
     RDKit          3D

 42 43  0  0  0  0  0  0  0  0999 V2000
    3.5668  -24.6903   24.4751 C   0  0  0  0  0  0  0  0  0  0  0  0
    4.3045  -24.8363   25.8167 C   0  0  0  0  0  0  0  0  0  0  0  0
    5.2570  -26.0474   25.7143 C   0  0  0  0  0  0  0  0  0  0  0  0
    3.2505  -25.0835   26.8969 C   0  0  0  0  0  0  0  0  0  0  0  0
    2.1718  -24.5149   27.0004 O   0  0  0  0  0  0  0  0  0  0  0  0
    3.5961  -25.9936   27.8309 O   0  0  0  0  0  0  0  0  0  0  0  0
    5.0742  -23.6122   26.1063 N   0  0  0  0  0  0  0  0  0  0  0  0
    4.9648  -22.7541   27.1631 C   0  0  0  0  0  0  0  0  0  0  0  0
    6.0831  -21.9446   27.1107 C   0  0  0  0  0  0  0  0  0  0  0  0
    6.8102  -22.3446   25.9628 C   0  0  0  0  0  0  0  0  0  0  0  0
    7.9934  -21.8537   25.4306 N   0  0  0  0  0  0  0  0  0  0  0  0
    8.9012  -20.8033   25.9089 C   0  0  0  0  0  0  0  0  0  0  0  0
    8.8881  -20.1607   26.9225 O   0  0  0  0  0  0  0  0  0  0  0  0
    9.9930  -20.4513   24.7934 C   0  0  0  0  0  0  0  0  0  0  0  0
    9.9486  -19.1373   24.0927 N   0  0  0  0  0  0  0  0  0  0  0  0
   10.8092  -17.9703   24.2020 C   0  0  0  0  0  0  0  0  0  0  0  0
   11.7242  -17.7419   24.9410 O   0  0  0  0  0  0  0  0  0  0  0  0
   10.5789  -16.8653   23.1555 C   0  0  0  0  0  0  0  0  0  0  0  0
   10.7514  -15.5057   23.5125 C   0  0  0  0  0  0  0  0  0  0  0  0
   10.6752  -14.4661   22.5632 C   0  0  0  0  0  0  0  0  0  0  0  0
   10.4399  -14.7684   21.2266 C   0  0  0  0  0  0  0  0  0  0  0  0
   10.2840  -16.1065   20.8502 C   0  0  0  0  0  0  0  0  0  0  0  0
   10.3590  -17.1426   21.8004 C   0  0  0  0  0  0  0  0  0  0  0  0
    6.1374  -23.3050   25.3155 N   0  0  0  0  0  0  0  0  0  0  0  0
    2.8929  -23.8298   24.4851 H   0  0  0  0  0  0  0  0  0  0  0  0
    2.9586  -25.5768   24.2599 H   0  0  0  0  0  0  0  0  0  0  0  0
    4.2628  -24.5502   23.6403 H   0  0  0  0  0  0  0  0  0  0  0  0
    5.9353  -25.9597   24.8575 H   0  0  0  0  0  0  0  0  0  0  0  0
    4.6982  -26.9831   25.5946 H   0  0  0  0  0  0  0  0  0  0  0  0
    5.8802  -26.1439   26.6115 H   0  0  0  0  0  0  0  0  0  0  0  0
    2.8354  -26.0363   28.4488 H   0  0  0  0  0  0  0  0  0  0  0  0
    4.1657  -22.8153   27.8860 H   0  0  0  0  0  0  0  0  0  0  0  0
    6.3591  -21.1745   27.8177 H   0  0  0  0  0  0  0  0  0  0  0  0
    8.3543  -22.2370   24.5675 H   0  0  0  0  0  0  0  0  0  0  0  0
   10.9671  -20.5153   25.2921 H   0  0  0  0  0  0  0  0  0  0  0  0
    9.9842  -21.2102   24.0055 H   0  0  0  0  0  0  0  0  0  0  0  0
    9.3296  -19.0189   23.2974 H   0  0  0  0  0  0  0  0  0  0  0  0
   10.9564  -15.2574   24.5534 H   0  0  0  0  0  0  0  0  0  0  0  0
   10.8084  -13.4354   22.8807 H   0  0  0  0  0  0  0  0  0  0  0  0
   10.3853  -13.9778   20.4833 H   0  0  0  0  0  0  0  0  0  0  0  0
   10.1166  -16.3495   19.8026 H   0  0  0  0  0  0  0  0  0  0  0  0
   10.2857  -18.1685   21.4517 H   0  0  0  0  0  0  0  0  0  0  0  0
  1  2  1  0
  2  3  1  0
  2  4  1  0
  4  5  2  0
  4  6  1  0
  2  7  1  0
  7  8  1  0
  8  9  2  0
  9 10  1  0
 10 11  1  0
 11 12  1  0
 12 13  2  0
 12 14  1  0
 14 15  1  0
 15 16  1  0
 16 17  2  0
 16 18  1  0
 18 19  2  0
 19 20  1  0
 20 21  2  0
 21 22  1  0
 22 23  2  0
 10 24  2  0
 24  7  1  0
 23 18  1  0
  1 25  1  0
  1 26  1  0
  1 27  1  0
  3 28  1  0
  3 29  1  0
  3 30  1  0
  6 31  1  0
  8 32  1  0
  9 33  1  0
 11 34  1  0
 14 35  1  0
 14 36  1  0
 15 37  1  0
 19 38  1  0
 20 39  1  0
 21 40  1  0
 22 41  1  0
 23 42  1  0
M  END
>  <Energy>  (404) 
25.551536545874324

>  <compound_id>  (404) 
51865

>  <target_id>  (404) 
1

>  <reference_id>  (404) 
66

>  <inspiration_ids>  (404) 
[96, 66]

>  <energy_score>  (404) 
-40.774212692288245

>  <distance_score>  (404) 
17.374318256635586

>  <path>  (404) 
/opt/xchem-fragalysis-2/maxwin/BulkDock/SCRATCH/511025/C51865-P66/C51865-P66.minimised.mol

>  <scratch_subdir>  (404) 
/opt/xchem-fragalysis-2/maxwin/BulkDock/SCRATCH/511025/C51865-P66

>  <fragmenstein_runtime>  (404) 
49.16125726699829

>  <fragmenstein_outcome>  (404) 
too moved

>  <fragmenstein_mode>  (404) 
expansion

>  <fragmenstein_error>  (404) 


$$$$
C51867-P96
     RDKit          3D

 40 41  0  0  0  0  0  0  0  0999 V2000
   -2.9032  -20.8411   21.5743 C   0  0  0  0  0  0  0  0  0  0  0  0
   -2.6422  -20.3794   23.0961 C   0  0  0  0  0  0  0  0  0  0  0  0
   -3.9804  -20.9573   23.7225 C   0  0  0  0  0  0  0  0  0  0  0  0
   -1.4229  -21.3452   23.2829 C   0  0  0  0  0  0  0  0  0  0  0  0
   -0.2688  -21.1955   22.9109 O   0  0  0  0  0  0  0  0  0  0  0  0
   -1.7118  -22.5420   23.8507 O   0  0  0  0  0  0  0  0  0  0  0  0
   -2.2601  -18.9396   23.5743 N   0  0  0  0  0  0  0  0  0  0  0  0
   -2.5665  -17.4774   24.7690 C   0  0  0  0  0  0  0  0  0  0  0  0
   -2.7634  -15.6438   24.2395 C   0  0  0  0  0  0  0  0  0  0  0  0
   -1.8956  -14.3724   23.0671 N   0  0  0  0  0  0  0  0  0  0  0  0
   -1.6010  -12.9104   23.2125 C   0  0  0  0  0  0  0  0  0  0  0  0
   -1.9768  -12.2004   24.0504 O   0  0  0  0  0  0  0  0  0  0  0  0
   -0.2705  -12.4602   21.8987 N   0  0  0  0  0  0  0  0  0  0  0  0
    0.9318  -10.7869   21.7194 C   0  0  0  0  0  0  0  0  0  0  0  0
    2.5190  -10.3546   20.6079 C   0  0  0  0  0  0  0  0  0  0  0  0
    3.0586  -11.1424   19.3108 C   0  0  0  0  0  0  0  0  0  0  0  0
    4.1450  -10.7597   18.3246 C   0  0  0  0  0  0  0  0  0  0  0  0
    4.7008   -9.4810   18.3525 C   0  0  0  0  0  0  0  0  0  0  0  0
    4.1315   -8.5592   19.2356 C   0  0  0  0  0  0  0  0  0  0  0  0
    3.0738   -8.9321   20.1978 C   0  0  0  0  0  0  0  0  0  0  0  0
   -1.7338  -16.8442   24.5754 C   0  0  0  0  0  0  0  0  0  0  0  0
   -1.4760  -17.8604   23.0060 N   0  0  0  0  0  0  0  0  0  0  0  0
   -2.6180  -20.1742   20.7892 H   0  0  0  0  0  0  0  0  0  0  0  0
   -2.4227  -21.8020   21.3361 H   0  0  0  0  0  0  0  0  0  0  0  0
   -3.9527  -21.0556   21.3392 H   0  0  0  0  0  0  0  0  0  0  0  0
   -4.3370  -20.3417   24.5443 H   0  0  0  0  0  0  0  0  0  0  0  0
   -3.9055  -21.9956   24.0643 H   0  0  0  0  0  0  0  0  0  0  0  0
   -4.8267  -20.9970   23.0306 H   0  0  0  0  0  0  0  0  0  0  0  0
   -0.8737  -23.0430   23.7524 H   0  0  0  0  0  0  0  0  0  0  0  0
   -3.4551  -18.1852   24.7831 H   0  0  0  0  0  0  0  0  0  0  0  0
   -1.5342  -14.6720   22.2501 H   0  0  0  0  0  0  0  0  0  0  0  0
   -0.1730  -13.2088   21.2140 H   0  0  0  0  0  0  0  0  0  0  0  0
    1.7188  -11.4176   22.1173 H   0  0  0  0  0  0  0  0  0  0  0  0
    0.3227  -10.3523   20.9390 H   0  0  0  0  0  0  0  0  0  0  0  0
    2.5584  -12.0834   19.1460 H   0  0  0  0  0  0  0  0  0  0  0  0
    4.4173  -11.4838   17.5598 H   0  0  0  0  0  0  0  0  0  0  0  0
    5.4483   -9.1818   17.6268 H   0  0  0  0  0  0  0  0  0  0  0  0
    4.3891   -7.5055   19.1400 H   0  0  0  0  0  0  0  0  0  0  0  0
    2.5643   -8.0047   20.4539 H   0  0  0  0  0  0  0  0  0  0  0  0
   -0.7528  -16.5657   25.0725 H   0  0  0  0  0  0  0  0  0  0  0  0
  1  2  1  0
  2  3  1  0
  2  4  1  0
  4  5  2  0
  4  6  1  0
  2  7  1  0
  7  8  1  0
  8  9  2  0
  9 10  1  0
 10 11  1  0
 11 12  2  0
 11 13  1  0
 13 14  1  0
 14 15  1  0
 15 16  2  0
 16 17  1  0
 17 18  2  0
 18 19  1  0
 19 20  2  0
  9 21  1  0
 21 22  2  0
 22  7  1  0
 20 15  1  0
  1 23  1  0
  1 24  1  0
  1 25  1  0
  3 26  1  0
  3 27  1  0
  3 28  1  0
  6 29  1  0
  8 30  1  0
 10 31  1  0
 13 32  1  0
 14 33  1  0
 14 34  1  0
 16 35  1  0
 17 36  1  0
 18 37  1  0
 19 38  1  0
 20 39  1  0
 21 40  1  0
M  END
>  <Energy>  (405) 
1017.305021513147

>  <compound_id>  (405) 
51867

>  <target_id>  (405) 
1

>  <reference_id>  (405) 
96

>  <inspiration_ids>  (405) 
[96, 66]

>  <energy_score>  (405) 
1001.9052390449681

>  <distance_score>  (405) 
12.629109321490857

>  <path>  (405) 
/opt/xchem-fragalysis-2/maxwin/BulkDock/SCRATCH/511025/C51867-P96/C51867-P96.minimised.mol

>  <scratch_subdir>  (405) 
/opt/xchem-fragalysis-2/maxwin/BulkDock/SCRATCH/511025/C51867-P96

>  <fragmenstein_runtime>  (405) 
15.473710060119629

>  <fragmenstein_outcome>  (405) 
too moved

>  <fragmenstein_mode>  (405) 
expansion

>  <fragmenstein_error>  (405) 


$$$$
C51867-P66
     RDKit          3D

 40 41  0  0  0  0  0  0  0  0999 V2000
   -2.8458  -20.7768   24.5212 C   0  0  0  0  0  0  0  0  0  0  0  0
   -1.8060  -20.4489   23.0946 C   0  0  0  0  0  0  0  0  0  0  0  0
   -0.5422  -21.6582   23.5596 C   0  0  0  0  0  0  0  0  0  0  0  0
   -2.8255  -21.6248   22.1475 C   0  0  0  0  0  0  0  0  0  0  0  0
   -3.2157  -21.5709   20.9906 O   0  0  0  0  0  0  0  0  0  0  0  0
   -3.0961  -22.7614   22.8442 O   0  0  0  0  0  0  0  0  0  0  0  0
   -1.2641  -18.8541   22.0708 N   0  0  0  0  0  0  0  0  0  0  0  0
   -0.1119  -18.0164   21.6769 C   0  0  0  0  0  0  0  0  0  0  0  0
   -0.1386  -16.7868   21.0147 C   0  0  0  0  0  0  0  0  0  0  0  0
    0.8376  -16.4507   20.0587 N   0  0  0  0  0  0  0  0  0  0  0  0
    2.1733  -15.1443   20.0616 C   0  0  0  0  0  0  0  0  0  0  0  0
    2.4939  -14.4250   20.8838 O   0  0  0  0  0  0  0  0  0  0  0  0
    2.7903  -15.1370   18.4538 N   0  0  0  0  0  0  0  0  0  0  0  0
    3.7522  -14.1807   17.7624 C   0  0  0  0  0  0  0  0  0  0  0  0
    5.1969  -13.6687   17.9276 C   0  0  0  0  0  0  0  0  0  0  0  0
    6.2776  -14.3432   18.4829 C   0  0  0  0  0  0  0  0  0  0  0  0
    7.5757  -13.7782   18.4931 C   0  0  0  0  0  0  0  0  0  0  0  0
    7.8440  -12.5416   17.9045 C   0  0  0  0  0  0  0  0  0  0  0  0
    6.8084  -11.8640   17.2891 C   0  0  0  0  0  0  0  0  0  0  0  0
    5.5186  -12.4234   17.3004 C   0  0  0  0  0  0  0  0  0  0  0  0
   -1.4071  -17.1212   20.3662 C   0  0  0  0  0  0  0  0  0  0  0  0
   -1.9692  -18.2984   20.6698 N   0  0  0  0  0  0  0  0  0  0  0  0
   -2.8689  -20.0849   25.3628 H   0  0  0  0  0  0  0  0  0  0  0  0
   -2.4915  -21.6979   25.0043 H   0  0  0  0  0  0  0  0  0  0  0  0
   -3.8576  -21.1111   24.3061 H   0  0  0  0  0  0  0  0  0  0  0  0
   -0.5503  -22.5185   22.8757 H   0  0  0  0  0  0  0  0  0  0  0  0
    0.4647  -21.2324   23.6655 H   0  0  0  0  0  0  0  0  0  0  0  0
   -0.7572  -22.1557   24.5120 H   0  0  0  0  0  0  0  0  0  0  0  0
   -3.6641  -23.2552   22.2117 H   0  0  0  0  0  0  0  0  0  0  0  0
    0.7787  -18.5893   21.5869 H   0  0  0  0  0  0  0  0  0  0  0  0
    0.8476  -17.0013   19.2097 H   0  0  0  0  0  0  0  0  0  0  0  0
    2.2989  -15.8009   17.9104 H   0  0  0  0  0  0  0  0  0  0  0  0
    3.7263  -14.5481   16.7272 H   0  0  0  0  0  0  0  0  0  0  0  0
    3.2071  -13.2652   17.7496 H   0  0  0  0  0  0  0  0  0  0  0  0
    6.1309  -15.3236   18.9281 H   0  0  0  0  0  0  0  0  0  0  0  0
    8.3849  -14.3329   18.9624 H   0  0  0  0  0  0  0  0  0  0  0  0
    8.8481  -12.1300   17.9098 H   0  0  0  0  0  0  0  0  0  0  0  0
    6.9848  -10.9193   16.7864 H   0  0  0  0  0  0  0  0  0  0  0  0
    4.7278  -11.8543   16.8109 H   0  0  0  0  0  0  0  0  0  0  0  0
   -1.8670  -16.5622   19.5656 H   0  0  0  0  0  0  0  0  0  0  0  0
  1  2  1  0
  2  3  1  0
  2  4  1  0
  4  5  2  0
  4  6  1  0
  2  7  1  0
  7  8  1  0
  8  9  2  0
  9 10  1  0
 10 11  1  0
 11 12  2  0
 11 13  1  0
 13 14  1  0
 14 15  1  0
 15 16  2  0
 16 17  1  0
 17 18  2  0
 18 19  1  0
 19 20  2  0
  9 21  1  0
 21 22  2  0
 22  7  1  0
 20 15  1  0
  1 23  1  0
  1 24  1  0
  1 25  1  0
  3 26  1  0
  3 27  1  0
  3 28  1  0
  6 29  1  0
  8 30  1  0
 10 31  1  0
 13 32  1  0
 14 33  1  0
 14 34  1  0
 16 35  1  0
 17 36  1  0
 18 37  1  0
 19 38  1  0
 20 39  1  0
 21 40  1  0
M  END
>  <Energy>  (406) 
400.355945713962

>  <compound_id>  (406) 
51867

>  <target_id>  (406) 
1

>  <reference_id>  (406) 
66

>  <inspiration_ids>  (406) 
[96, 66]

>  <energy_score>  (406) 
384.9561632457678

>  <distance_score>  (406) 
13.813880194317619

>  <path>  (406) 
/opt/xchem-fragalysis-2/maxwin/BulkDock/SCRATCH/511025/C51867-P66/C51867-P66.minimised.mol

>  <scratch_subdir>  (406) 
/opt/xchem-fragalysis-2/maxwin/BulkDock/SCRATCH/511025/C51867-P66

>  <fragmenstein_runtime>  (406) 
23.989166975021362

>  <fragmenstein_outcome>  (406) 
too moved

>  <fragmenstein_mode>  (406) 
expansion

>  <fragmenstein_error>  (406) 


$$$$
C51868-P96
     RDKit          3D

 41 42  0  0  0  0  0  0  0  0999 V2000
   -9.5445  -20.6837   28.4541 C   0  0  0  0  0  0  0  0  0  0  0  0
   -7.8606  -21.4899   28.0638 C   0  0  0  0  0  0  0  0  0  0  0  0
   -8.9454  -22.8011   27.2512 C   0  0  0  0  0  0  0  0  0  0  0  0
   -8.2034  -22.8770   29.2924 C   0  0  0  0  0  0  0  0  0  0  0  0
   -7.5273  -23.8462   29.5912 O   0  0  0  0  0  0  0  0  0  0  0  0
   -9.4171  -22.9290   29.9165 O   0  0  0  0  0  0  0  0  0  0  0  0
   -6.2147  -20.6217   27.3801 N   0  0  0  0  0  0  0  0  0  0  0  0
   -5.5261  -18.9279   26.6516 C   0  0  0  0  0  0  0  0  0  0  0  0
   -4.1669  -18.6441   25.4033 C   0  0  0  0  0  0  0  0  0  0  0  0
   -2.6620  -17.3304   24.7945 N   0  0  0  0  0  0  0  0  0  0  0  0
   -2.7112  -15.3851   24.1307 C   0  0  0  0  0  0  0  0  0  0  0  0
   -3.7730  -14.9683   24.2293 O   0  0  0  0  0  0  0  0  0  0  0  0
   -1.5365  -13.8752   23.0840 C   0  0  0  0  0  0  0  0  0  0  0  0
    0.1007  -12.6522   22.3852 C   0  0  0  0  0  0  0  0  0  0  0  0
    1.9070  -12.0038   21.5362 C   0  0  0  0  0  0  0  0  0  0  0  0
    2.1236  -10.6299   21.2591 C   0  0  0  0  0  0  0  0  0  0  0  0
    3.0798   -9.6218   20.0805 C   0  0  0  0  0  0  0  0  0  0  0  0
    3.9199  -10.0084   18.9250 C   0  0  0  0  0  0  0  0  0  0  0  0
    3.5054  -11.3262   18.6937 C   0  0  0  0  0  0  0  0  0  0  0  0
    2.4435  -12.1507   19.8010 C   0  0  0  0  0  0  0  0  0  0  0  0
   -4.5131  -20.4445   25.4241 C   0  0  0  0  0  0  0  0  0  0  0  0
   -5.1296  -21.3435   26.4249 N   0  0  0  0  0  0  0  0  0  0  0  0
  -10.1658  -20.4333   27.6005 H   0  0  0  0  0  0  0  0  0  0  0  0
   -9.6881  -19.9355   29.2375 H   0  0  0  0  0  0  0  0  0  0  0  0
  -10.2245  -21.4454   28.8459 H   0  0  0  0  0  0  0  0  0  0  0  0
   -8.6336  -23.1395   26.3103 H   0  0  0  0  0  0  0  0  0  0  0  0
   -9.9929  -22.4826   27.1290 H   0  0  0  0  0  0  0  0  0  0  0  0
   -9.1268  -23.7606   27.7657 H   0  0  0  0  0  0  0  0  0  0  0  0
   -9.3538  -23.7556   30.4416 H   0  0  0  0  0  0  0  0  0  0  0  0
   -6.2068  -18.1502   26.9918 H   0  0  0  0  0  0  0  0  0  0  0  0
   -1.7080  -17.6466   24.7771 H   0  0  0  0  0  0  0  0  0  0  0  0
   -2.0537  -13.8557   22.1438 H   0  0  0  0  0  0  0  0  0  0  0  0
   -2.0492  -13.0281   23.6215 H   0  0  0  0  0  0  0  0  0  0  0  0
    0.8020  -13.3640   21.9476 H   0  0  0  0  0  0  0  0  0  0  0  0
    0.2501  -12.1168   23.3652 H   0  0  0  0  0  0  0  0  0  0  0  0
    1.3693  -10.1168   21.8202 H   0  0  0  0  0  0  0  0  0  0  0  0
    2.8959   -8.5329   20.1289 H   0  0  0  0  0  0  0  0  0  0  0  0
    4.4406   -9.3479   18.2549 H   0  0  0  0  0  0  0  0  0  0  0  0
    3.6839  -11.7741   17.7147 H   0  0  0  0  0  0  0  0  0  0  0  0
    1.9584  -12.9856   19.2587 H   0  0  0  0  0  0  0  0  0  0  0  0
   -4.1610  -20.9841   24.5386 H   0  0  0  0  0  0  0  0  0  0  0  0
  1  2  1  0
  2  3  1  0
  2  4  1  0
  4  5  2  0
  4  6  1  0
  2  7  1  0
  7  8  1  0
  8  9  2  0
  9 10  1  0
 10 11  1  0
 11 12  2  0
 11 13  1  0
 13 14  1  0
 14 15  1  0
 15 16  2  0
 16 17  1  0
 17 18  2  0
 18 19  1  0
 19 20  2  0
  9 21  1  0
 21 22  2  0
 22  7  1  0
 20 15  1  0
  1 23  1  0
  1 24  1  0
  1 25  1  0
  3 26  1  0
  3 27  1  0
  3 28  1  0
  6 29  1  0
  8 30  1  0
 10 31  1  0
 13 32  1  0
 13 33  1  0
 14 34  1  0
 14 35  1  0
 16 36  1  0
 17 37  1  0
 18 38  1  0
 19 39  1  0
 20 40  1  0
 21 41  1  0
M  END
>  <Energy>  (407) 
1709.5949353126389

>  <compound_id>  (407) 
51868

>  <target_id>  (407) 
1

>  <reference_id>  (407) 
96

>  <inspiration_ids>  (407) 
[96, 66]

>  <energy_score>  (407) 
1661.2903264937859

>  <distance_score>  (407) 
12.355847218688808

>  <path>  (407) 
/opt/xchem-fragalysis-2/maxwin/BulkDock/SCRATCH/511025/C51868-P96/C51868-P96.minimised.mol

>  <scratch_subdir>  (407) 
/opt/xchem-fragalysis-2/maxwin/BulkDock/SCRATCH/511025/C51868-P96

>  <fragmenstein_runtime>  (407) 
22.84860396385193

>  <fragmenstein_outcome>  (407) 
too moved

>  <fragmenstein_mode>  (407) 
expansion

>  <fragmenstein_error>  (407) 


$$$$
C51868-P66
     RDKit          3D

 41 42  0  0  0  0  0  0  0  0999 V2000
   -4.2629  -18.1620   29.8256 C   0  0  0  0  0  0  0  0  0  0  0  0
   -3.4424  -18.5850   28.2448 C   0  0  0  0  0  0  0  0  0  0  0  0
   -3.9130  -19.9855   27.4669 C   0  0  0  0  0  0  0  0  0  0  0  0
   -2.0155  -19.3039   28.3739 C   0  0  0  0  0  0  0  0  0  0  0  0
   -1.1053  -19.2173   27.5560 O   0  0  0  0  0  0  0  0  0  0  0  0
   -1.8694  -20.1210   29.4553 O   0  0  0  0  0  0  0  0  0  0  0  0
   -3.2675  -17.0655   27.7014 N   0  0  0  0  0  0  0  0  0  0  0  0
   -2.3572  -16.2821   26.8765 C   0  0  0  0  0  0  0  0  0  0  0  0
   -2.5377  -14.4760   26.7668 C   0  0  0  0  0  0  0  0  0  0  0  0
   -2.6872  -12.6291   26.0688 N   0  0  0  0  0  0  0  0  0  0  0  0
   -2.6853  -10.8670   27.0183 C   0  0  0  0  0  0  0  0  0  0  0  0
   -2.6857  -10.7789   28.2680 O   0  0  0  0  0  0  0  0  0  0  0  0
   -2.5117   -9.1462   26.2861 C   0  0  0  0  0  0  0  0  0  0  0  0
   -1.2017   -7.9930   26.5551 C   0  0  0  0  0  0  0  0  0  0  0  0
   -0.2862   -7.1533   25.5524 C   0  0  0  0  0  0  0  0  0  0  0  0
   -0.3950   -7.0470   24.1534 C   0  0  0  0  0  0  0  0  0  0  0  0
    0.5633   -6.3680   23.3558 C   0  0  0  0  0  0  0  0  0  0  0  0
    1.6467   -5.7177   23.9338 C   0  0  0  0  0  0  0  0  0  0  0  0
    1.7571   -5.7338   25.3165 C   0  0  0  0  0  0  0  0  0  0  0  0
    0.8092   -6.4362   26.1025 C   0  0  0  0  0  0  0  0  0  0  0  0
   -2.3998  -15.0551   28.2682 C   0  0  0  0  0  0  0  0  0  0  0  0
   -3.2804  -16.1077   28.6340 N   0  0  0  0  0  0  0  0  0  0  0  0
   -5.2697  -17.7876   29.6460 H   0  0  0  0  0  0  0  0  0  0  0  0
   -4.1424  -18.9383   30.5937 H   0  0  0  0  0  0  0  0  0  0  0  0
   -3.9042  -17.2937   30.4016 H   0  0  0  0  0  0  0  0  0  0  0  0
   -3.2669  -20.2283   26.6051 H   0  0  0  0  0  0  0  0  0  0  0  0
   -4.9419  -19.9972   27.1018 H   0  0  0  0  0  0  0  0  0  0  0  0
   -3.7953  -20.8800   28.0993 H   0  0  0  0  0  0  0  0  0  0  0  0
   -2.5831  -20.0889   30.1161 H   0  0  0  0  0  0  0  0  0  0  0  0
   -1.5001  -16.8336   27.2909 H   0  0  0  0  0  0  0  0  0  0  0  0
   -2.7697  -12.4742   25.0803 H   0  0  0  0  0  0  0  0  0  0  0  0
   -2.5814   -9.2729   25.2155 H   0  0  0  0  0  0  0  0  0  0  0  0
   -3.2898   -8.6076   26.8545 H   0  0  0  0  0  0  0  0  0  0  0  0
   -0.5378   -8.4935   27.2720 H   0  0  0  0  0  0  0  0  0  0  0  0
   -1.7072   -7.2005   27.1282 H   0  0  0  0  0  0  0  0  0  0  0  0
   -1.1980   -7.5322   23.6106 H   0  0  0  0  0  0  0  0  0  0  0  0
    0.4466   -6.3717   22.2738 H   0  0  0  0  0  0  0  0  0  0  0  0
    2.3758   -5.2012   23.3194 H   0  0  0  0  0  0  0  0  0  0  0  0
    2.5825   -5.2240   25.8053 H   0  0  0  0  0  0  0  0  0  0  0  0
    0.9600   -6.4515   27.1819 H   0  0  0  0  0  0  0  0  0  0  0  0
   -2.2428  -14.4718   29.1663 H   0  0  0  0  0  0  0  0  0  0  0  0
  1  2  1  0
  2  3  1  0
  2  4  1  0
  4  5  2  0
  4  6  1  0
  2  7  1  0
  7  8  1  0
  8  9  2  0
  9 10  1  0
 10 11  1  0
 11 12  2  0
 11 13  1  0
 13 14  1  0
 14 15  1  0
 15 16  2  0
 16 17  1  0
 17 18  2  0
 18 19  1  0
 19 20  2  0
  9 21  1  0
 21 22  2  0
 22  7  1  0
 20 15  1  0
  1 23  1  0
  1 24  1  0
  1 25  1  0
  3 26  1  0
  3 27  1  0
  3 28  1  0
  6 29  1  0
  8 30  1  0
 10 31  1  0
 13 32  1  0
 13 33  1  0
 14 34  1  0
 14 35  1  0
 16 36  1  0
 17 37  1  0
 18 38  1  0
 19 39  1  0
 20 40  1  0
 21 41  1  0
M  END
>  <Energy>  (408) 
678.28935738157236

>  <compound_id>  (408) 
51868

>  <target_id>  (408) 
1

>  <reference_id>  (408) 
66

>  <inspiration_ids>  (408) 
[96, 66]

>  <energy_score>  (408) 
629.984748562696

>  <distance_score>  (408) 
14.383086474859818

>  <path>  (408) 
/opt/xchem-fragalysis-2/maxwin/BulkDock/SCRATCH/511025/C51868-P66/C51868-P66.minimised.mol

>  <scratch_subdir>  (408) 
/opt/xchem-fragalysis-2/maxwin/BulkDock/SCRATCH/511025/C51868-P66

>  <fragmenstein_runtime>  (408) 
22.612324714660645

>  <fragmenstein_outcome>  (408) 
too moved

>  <fragmenstein_mode>  (408) 
expansion

>  <fragmenstein_error>  (408) 


$$$$
C51871-P96
     RDKit          3D

 44 45  0  0  0  0  0  0  0  0999 V2000
    2.0832  -10.8760   20.2729 C   0  0  0  0  0  0  0  0  0  0  0  0
    1.3777  -11.2466   21.8963 C   0  0  0  0  0  0  0  0  0  0  0  0
    2.5853  -12.1621   22.1893 C   0  0  0  0  0  0  0  0  0  0  0  0
   -0.4651  -12.5060   22.0026 C   0  0  0  0  0  0  0  0  0  0  0  0
   -0.6295  -13.1793   20.9949 O   0  0  0  0  0  0  0  0  0  0  0  0
   -1.3296  -12.5372   23.3632 N   0  0  0  0  0  0  0  0  0  0  0  0
   -2.6775  -13.6088   23.9210 C   0  0  0  0  0  0  0  0  0  0  0  0
   -2.4543  -13.8079   25.7977 C   0  0  0  0  0  0  0  0  0  0  0  0
   -2.7119  -15.0636   26.3823 N   0  0  0  0  0  0  0  0  0  0  0  0
   -2.3110  -16.1346   25.6100 N   0  0  0  0  0  0  0  0  0  0  0  0
   -2.4964  -17.9632   25.9671 C   0  0  0  0  0  0  0  0  0  0  0  0
   -2.9590  -19.0600   24.7782 C   0  0  0  0  0  0  0  0  0  0  0  0
   -3.7419  -18.2326   26.8575 C   0  0  0  0  0  0  0  0  0  0  0  0
   -1.6644  -19.0026   27.0023 C   0  0  0  0  0  0  0  0  0  0  0  0
   -0.5999  -18.8571   27.5682 O   0  0  0  0  0  0  0  0  0  0  0  0
   -2.1820  -20.2779   27.2023 O   0  0  0  0  0  0  0  0  0  0  0  0
   -2.9218  -15.1672   24.2453 C   0  0  0  0  0  0  0  0  0  0  0  0
    2.5254   -9.6191   21.4765 C   0  0  0  0  0  0  0  0  0  0  0  0
    3.9065   -9.2346   22.0030 C   0  0  0  0  0  0  0  0  0  0  0  0
    4.8273   -8.1392   21.7072 C   0  0  0  0  0  0  0  0  0  0  0  0
    4.5958   -7.2382   20.7004 C   0  0  0  0  0  0  0  0  0  0  0  0
    3.4827   -7.4653   19.9411 C   0  0  0  0  0  0  0  0  0  0  0  0
    2.5813   -8.5447   20.2670 C   0  0  0  0  0  0  0  0  0  0  0  0
    2.9790  -10.4563   19.7755 H   0  0  0  0  0  0  0  0  0  0  0  0
    2.3075  -11.7647   19.6143 H   0  0  0  0  0  0  0  0  0  0  0  0
    1.2058  -10.2562   20.0138 H   0  0  0  0  0  0  0  0  0  0  0  0
    3.3358  -12.9143   21.9091 H   0  0  0  0  0  0  0  0  0  0  0  0
    2.9685  -12.0386   23.2045 H   0  0  0  0  0  0  0  0  0  0  0  0
    2.0406  -13.0026   21.7683 H   0  0  0  0  0  0  0  0  0  0  0  0
   -1.0166  -11.8316   23.9447 H   0  0  0  0  0  0  0  0  0  0  0  0
   -2.1304  -12.9970   26.4218 H   0  0  0  0  0  0  0  0  0  0  0  0
   -4.0181  -18.9915   24.5735 H   0  0  0  0  0  0  0  0  0  0  0  0
   -2.4245  -19.1632   23.8377 H   0  0  0  0  0  0  0  0  0  0  0  0
   -2.8833  -20.0974   25.1122 H   0  0  0  0  0  0  0  0  0  0  0  0
   -3.4641  -18.7845   27.7477 H   0  0  0  0  0  0  0  0  0  0  0  0
   -4.5142  -18.8877   26.4302 H   0  0  0  0  0  0  0  0  0  0  0  0
   -4.2550  -17.3110   27.1179 H   0  0  0  0  0  0  0  0  0  0  0  0
   -3.0747  -20.4985   26.8734 H   0  0  0  0  0  0  0  0  0  0  0  0
   -2.4545  -16.0013   23.9323 H   0  0  0  0  0  0  0  0  0  0  0  0
    4.4464   -9.8700   22.7152 H   0  0  0  0  0  0  0  0  0  0  0  0
    5.7515   -8.0799   22.2810 H   0  0  0  0  0  0  0  0  0  0  0  0
    5.2826   -6.4338   20.4805 H   0  0  0  0  0  0  0  0  0  0  0  0
    3.2696   -6.8510   19.0691 H   0  0  0  0  0  0  0  0  0  0  0  0
    1.8314   -8.5918   19.4590 H   0  0  0  0  0  0  0  0  0  0  0  0
  1  2  1  0
  2  3  1  0
  2  4  1  0
  4  5  2  0
  4  6  1  0
  6  7  1  0
  7  8  1  0
  8  9  2  0
  9 10  1  0
 10 11  1  0
 11 12  1  0
 11 13  1  0
 11 14  1  0
 14 15  2  0
 14 16  1  0
 10 17  1  0
  2 18  1  0
 18 19  2  0
 19 20  1  0
 20 21  2  0
 21 22  1  0
 22 23  2  0
 17  7  2  0
 23 18  1  0
  1 24  1  0
  1 25  1  0
  1 26  1  0
  3 27  1  0
  3 28  1  0
  3 29  1  0
  6 30  1  0
  8 31  1  0
 12 32  1  0
 12 33  1  0
 12 34  1  0
 13 35  1  0
 13 36  1  0
 13 37  1  0
 16 38  1  0
 17 39  1  0
 19 40  1  0
 20 41  1  0
 21 42  1  0
 22 43  1  0
 23 44  1  0
M  END
>  <Energy>  (409) 
1061.095097136882

>  <compound_id>  (409) 
51871

>  <target_id>  (409) 
1

>  <reference_id>  (409) 
96

>  <inspiration_ids>  (409) 
[96, 66]

>  <energy_score>  (409) 
946.0195264471813

>  <distance_score>  (409) 
13.298557559747557

>  <path>  (409) 
/opt/xchem-fragalysis-2/maxwin/BulkDock/SCRATCH/511025/C51871-P96/C51871-P96.minimised.mol

>  <scratch_subdir>  (409) 
/opt/xchem-fragalysis-2/maxwin/BulkDock/SCRATCH/511025/C51871-P96

>  <fragmenstein_runtime>  (409) 
18.498375177383423

>  <fragmenstein_outcome>  (409) 
too moved

>  <fragmenstein_mode>  (409) 
expansion

>  <fragmenstein_error>  (409) 


$$$$
C51871-P66
     RDKit          3D

 44 45  0  0  0  0  0  0  0  0999 V2000
    6.7132  -10.9464   21.8764 C   0  0  0  0  0  0  0  0  0  0  0  0
    5.2789  -11.1024   21.1759 C   0  0  0  0  0  0  0  0  0  0  0  0
    5.4730  -12.2692   20.1759 C   0  0  0  0  0  0  0  0  0  0  0  0
    3.9135  -11.0129   22.4772 C   0  0  0  0  0  0  0  0  0  0  0  0
    3.8306   -9.8691   22.9019 O   0  0  0  0  0  0  0  0  0  0  0  0
    3.0322  -12.5573   23.0161 N   0  0  0  0  0  0  0  0  0  0  0  0
    1.8611  -12.9070   24.4142 C   0  0  0  0  0  0  0  0  0  0  0  0
    0.3729  -14.1045   24.2656 C   0  0  0  0  0  0  0  0  0  0  0  0
   -0.9426  -13.6856   25.2941 N   0  0  0  0  0  0  0  0  0  0  0  0
    0.1610  -13.7366   26.8029 N   0  0  0  0  0  0  0  0  0  0  0  0
   -0.5364  -14.9967   28.2324 C   0  0  0  0  0  0  0  0  0  0  0  0
   -1.0979  -15.0769   29.9581 C   0  0  0  0  0  0  0  0  0  0  0  0
    0.8617  -16.1840   28.7157 C   0  0  0  0  0  0  0  0  0  0  0  0
   -1.7487  -16.1962   28.0558 C   0  0  0  0  0  0  0  0  0  0  0  0
   -2.9021  -16.1361   28.4328 O   0  0  0  0  0  0  0  0  0  0  0  0
   -1.4482  -17.4205   27.5381 O   0  0  0  0  0  0  0  0  0  0  0  0
    1.4224  -13.0440   26.0497 C   0  0  0  0  0  0  0  0  0  0  0  0
    5.2958   -9.6553   20.3554 C   0  0  0  0  0  0  0  0  0  0  0  0
    5.0432   -9.5692   18.9739 C   0  0  0  0  0  0  0  0  0  0  0  0
    5.1407   -8.3463   18.2860 C   0  0  0  0  0  0  0  0  0  0  0  0
    5.5342   -7.1824   18.9429 C   0  0  0  0  0  0  0  0  0  0  0  0
    5.8064   -7.2321   20.3029 C   0  0  0  0  0  0  0  0  0  0  0  0
    5.6664   -8.4445   20.9991 C   0  0  0  0  0  0  0  0  0  0  0  0
    7.2045  -11.9056   22.0724 H   0  0  0  0  0  0  0  0  0  0  0  0
    6.6302  -10.4205   22.8344 H   0  0  0  0  0  0  0  0  0  0  0  0
    7.4369  -10.4135   21.2455 H   0  0  0  0  0  0  0  0  0  0  0  0
    6.3164  -12.0598   19.5039 H   0  0  0  0  0  0  0  0  0  0  0  0
    5.7310  -13.2014   20.6710 H   0  0  0  0  0  0  0  0  0  0  0  0
    4.6224  -12.4739   19.5265 H   0  0  0  0  0  0  0  0  0  0  0  0
    3.2486  -13.3195   22.4130 H   0  0  0  0  0  0  0  0  0  0  0  0
   -0.0672  -14.1441   23.2665 H   0  0  0  0  0  0  0  0  0  0  0  0
   -1.2273  -16.1360   30.2441 H   0  0  0  0  0  0  0  0  0  0  0  0
   -0.4024  -14.7358   30.7232 H   0  0  0  0  0  0  0  0  0  0  0  0
   -2.0997  -14.6423   30.1025 H   0  0  0  0  0  0  0  0  0  0  0  0
    1.8448  -15.8431   28.3801 H   0  0  0  0  0  0  0  0  0  0  0  0
    0.7152  -17.1880   28.2907 H   0  0  0  0  0  0  0  0  0  0  0  0
    0.8497  -16.3813   29.7916 H   0  0  0  0  0  0  0  0  0  0  0  0
   -2.3486  -17.8343   27.4958 H   0  0  0  0  0  0  0  0  0  0  0  0
    1.2456  -12.0733   26.4934 H   0  0  0  0  0  0  0  0  0  0  0  0
    4.7421  -10.4431   18.4029 H   0  0  0  0  0  0  0  0  0  0  0  0
    4.8966   -8.3123   17.2258 H   0  0  0  0  0  0  0  0  0  0  0  0
    5.5781   -6.2447   18.3989 H   0  0  0  0  0  0  0  0  0  0  0  0
    6.0732   -6.3321   20.8490 H   0  0  0  0  0  0  0  0  0  0  0  0
    5.8363   -8.4298   22.0744 H   0  0  0  0  0  0  0  0  0  0  0  0
  1  2  1  0
  2  3  1  0
  2  4  1  0
  4  5  2  0
  4  6  1  0
  6  7  1  0
  7  8  1  0
  8  9  2  0
  9 10  1  0
 10 11  1  0
 11 12  1  0
 11 13  1  0
 11 14  1  0
 14 15  2  0
 14 16  1  0
 10 17  1  0
  2 18  1  0
 18 19  2  0
 19 20  1  0
 20 21  2  0
 21 22  1  0
 22 23  2  0
 17  7  2  0
 23 18  1  0
  1 24  1  0
  1 25  1  0
  1 26  1  0
  3 27  1  0
  3 28  1  0
  3 29  1  0
  6 30  1  0
  8 31  1  0
 12 32  1  0
 12 33  1  0
 12 34  1  0
 13 35  1  0
 13 36  1  0
 13 37  1  0
 16 38  1  0
 17 39  1  0
 19 40  1  0
 20 41  1  0
 21 42  1  0
 22 43  1  0
 23 44  1  0
M  END
>  <Energy>  (410) 
820.13727860447909

>  <compound_id>  (410) 
51871

>  <target_id>  (410) 
1

>  <reference_id>  (410) 
66

>  <inspiration_ids>  (410) 
[96, 66]

>  <energy_score>  (410) 
705.0617079147582

>  <distance_score>  (410) 
13.63015476009234

>  <path>  (410) 
/opt/xchem-fragalysis-2/maxwin/BulkDock/SCRATCH/511025/C51871-P66/C51871-P66.minimised.mol

>  <scratch_subdir>  (410) 
/opt/xchem-fragalysis-2/maxwin/BulkDock/SCRATCH/511025/C51871-P66

>  <fragmenstein_runtime>  (410) 
23.829253911972046

>  <fragmenstein_outcome>  (410) 
too moved

>  <fragmenstein_mode>  (410) 
expansion

>  <fragmenstein_error>  (410) 


$$$$
C51852-P96
     RDKit          3D

 45 47  0  0  0  0  0  0  0  0999 V2000
  -11.1273  -21.3920   29.8481 C   0  0  0  0  0  0  0  0  0  0  0  0
  -11.2961  -22.8104   30.4180 C   0  0  0  0  0  0  0  0  0  0  0  0
  -10.0729  -23.2157   31.2619 C   0  0  0  0  0  0  0  0  0  0  0  0
  -12.5071  -22.8735   31.3590 C   0  0  0  0  0  0  0  0  0  0  0  0
  -12.7505  -23.7393   32.1874 O   0  0  0  0  0  0  0  0  0  0  0  0
  -13.3633  -21.8360   31.2336 O   0  0  0  0  0  0  0  0  0  0  0  0
  -11.4491  -23.7520   29.2964 N   0  0  0  0  0  0  0  0  0  0  0  0
  -10.5524  -23.9836   28.2858 C   0  0  0  0  0  0  0  0  0  0  0  0
  -11.0720  -25.0191   27.5511 C   0  0  0  0  0  0  0  0  0  0  0  0
  -12.2955  -25.3393   28.1757 C   0  0  0  0  0  0  0  0  0  0  0  0
  -13.1258  -26.3514   27.7977 N   0  0  0  0  0  0  0  0  0  0  0  0
  -14.5231  -26.7785   28.3535 C   0  0  0  0  0  0  0  0  0  0  0  0
  -15.1333  -26.3722   29.2691 O   0  0  0  0  0  0  0  0  0  0  0  0
  -15.0171  -27.9267   27.4812 C   0  0  0  0  0  0  0  0  0  0  0  0
  -14.4044  -29.2816   27.7658 C   0  0  0  0  0  0  0  0  0  0  0  0
  -13.4983  -29.5075   28.8238 C   0  0  0  0  0  0  0  0  0  0  0  0
  -12.9414  -30.7705   29.0429 C   0  0  0  0  0  0  0  0  0  0  0  0
  -13.3062  -31.8088   28.2076 C   0  0  0  0  0  0  0  0  0  0  0  0
  -14.2168  -31.6077   27.1696 C   0  0  0  0  0  0  0  0  0  0  0  0
  -14.7741  -30.3602   26.9418 C   0  0  0  0  0  0  0  0  0  0  0  0
  -14.4239  -32.8696   26.3924 C   0  0  0  0  0  0  0  0  0  0  0  0
  -13.8900  -33.9191   27.3784 C   0  0  0  0  0  0  0  0  0  0  0  0
  -12.8157  -33.2222   28.2258 C   0  0  0  0  0  0  0  0  0  0  0  0
  -12.5335  -24.5339   29.2069 N   0  0  0  0  0  0  0  0  0  0  0  0
  -10.3035  -21.3245   29.1326 H   0  0  0  0  0  0  0  0  0  0  0  0
  -10.9659  -20.6546   30.6421 H   0  0  0  0  0  0  0  0  0  0  0  0
  -12.0089  -21.0851   29.2854 H   0  0  0  0  0  0  0  0  0  0  0  0
   -9.1549  -23.2567   30.6671 H   0  0  0  0  0  0  0  0  0  0  0  0
   -9.9143  -22.5154   32.0901 H   0  0  0  0  0  0  0  0  0  0  0  0
  -10.2035  -24.2135   31.6993 H   0  0  0  0  0  0  0  0  0  0  0  0
  -14.1910  -22.1430   31.6705 H   0  0  0  0  0  0  0  0  0  0  0  0
   -9.6360  -23.4205   28.1878 H   0  0  0  0  0  0  0  0  0  0  0  0
  -10.6270  -25.4821   26.6835 H   0  0  0  0  0  0  0  0  0  0  0  0
  -12.9331  -26.8563   26.9403 H   0  0  0  0  0  0  0  0  0  0  0  0
  -16.1029  -27.9969   27.6256 H   0  0  0  0  0  0  0  0  0  0  0  0
  -14.8554  -27.6624   26.4286 H   0  0  0  0  0  0  0  0  0  0  0  0
  -13.2134  -28.7045   29.5027 H   0  0  0  0  0  0  0  0  0  0  0  0
  -12.2457  -30.9293   29.8597 H   0  0  0  0  0  0  0  0  0  0  0  0
  -15.4863  -30.2228   26.1329 H   0  0  0  0  0  0  0  0  0  0  0  0
  -15.4760  -33.0463   26.1523 H   0  0  0  0  0  0  0  0  0  0  0  0
  -13.8270  -32.8478   25.4748 H   0  0  0  0  0  0  0  0  0  0  0  0
  -14.7094  -34.2444   28.0346 H   0  0  0  0  0  0  0  0  0  0  0  0
  -13.5094  -34.8121   26.8728 H   0  0  0  0  0  0  0  0  0  0  0  0
  -11.8320  -33.2853   27.7492 H   0  0  0  0  0  0  0  0  0  0  0  0
  -12.7712  -33.6385   29.2360 H   0  0  0  0  0  0  0  0  0  0  0  0
  1  2  1  0
  2  3  1  0
  2  4  1  0
  4  5  2  0
  4  6  1  0
  2  7  1  0
  7  8  1  0
  8  9  2  0
  9 10  1  0
 10 11  1  0
 11 12  1  0
 12 13  2  0
 12 14  1  0
 14 15  1  0
 15 16  2  0
 16 17  1  0
 17 18  2  0
 18 19  1  0
 19 20  2  0
 19 21  1  0
 21 22  1  0
 22 23  1  0
 10 24  2  0
 24  7  1  0
 20 15  1  0
 23 18  1  0
  1 25  1  0
  1 26  1  0
  1 27  1  0
  3 28  1  0
  3 29  1  0
  3 30  1  0
  6 31  1  0
  8 32  1  0
  9 33  1  0
 11 34  1  0
 14 35  1  0
 14 36  1  0
 16 37  1  0
 17 38  1  0
 20 39  1  0
 21 40  1  0
 21 41  1  0
 22 42  1  0
 22 43  1  0
 23 44  1  0
 23 45  1  0
M  END
>  <Energy>  (411) 
28.617243307946008

>  <compound_id>  (411) 
51852

>  <target_id>  (411) 
1

>  <reference_id>  (411) 
96

>  <inspiration_ids>  (411) 
[96, 66]

>  <energy_score>  (411) 
-13.359299209523328

>  <distance_score>  (411) 
4.5812527419050735

>  <path>  (411) 
/opt/xchem-fragalysis-2/maxwin/BulkDock/SCRATCH/511025/C51852-P96/C51852-P96.minimised.mol

>  <scratch_subdir>  (411) 
/opt/xchem-fragalysis-2/maxwin/BulkDock/SCRATCH/511025/C51852-P96

>  <fragmenstein_runtime>  (411) 
8.494287967681885

>  <fragmenstein_outcome>  (411) 
too moved

>  <fragmenstein_mode>  (411) 
expansion

>  <fragmenstein_error>  (411) 


$$$$
C51852-P66
     RDKit          3D

 45 47  0  0  0  0  0  0  0  0999 V2000
  -11.1699  -21.3286   32.2597 C   0  0  0  0  0  0  0  0  0  0  0  0
  -12.1330  -22.4899   32.1338 C   0  0  0  0  0  0  0  0  0  0  0  0
  -13.5598  -21.9077   32.2367 C   0  0  0  0  0  0  0  0  0  0  0  0
  -11.9666  -23.3419   33.4084 C   0  0  0  0  0  0  0  0  0  0  0  0
  -12.4259  -22.9785   34.4935 O   0  0  0  0  0  0  0  0  0  0  0  0
  -11.2151  -24.4580   33.3392 O   0  0  0  0  0  0  0  0  0  0  0  0
  -11.7824  -23.1511   30.8471 N   0  0  0  0  0  0  0  0  0  0  0  0
  -11.7518  -22.6218   29.5708 C   0  0  0  0  0  0  0  0  0  0  0  0
  -11.4723  -23.6748   28.7169 C   0  0  0  0  0  0  0  0  0  0  0  0
  -11.3390  -24.7643   29.5763 C   0  0  0  0  0  0  0  0  0  0  0  0
  -11.6879  -26.0550   29.3918 N   0  0  0  0  0  0  0  0  0  0  0  0
  -12.5714  -26.7155   28.2937 C   0  0  0  0  0  0  0  0  0  0  0  0
  -13.0651  -26.2541   27.3416 O   0  0  0  0  0  0  0  0  0  0  0  0
  -12.7871  -28.1673   28.7623 C   0  0  0  0  0  0  0  0  0  0  0  0
  -14.2090  -28.7115   28.7246 C   0  0  0  0  0  0  0  0  0  0  0  0
  -14.5774  -29.6743   29.6979 C   0  0  0  0  0  0  0  0  0  0  0  0
  -15.8586  -30.2321   29.7304 C   0  0  0  0  0  0  0  0  0  0  0  0
  -16.7655  -29.8438   28.7639 C   0  0  0  0  0  0  0  0  0  0  0  0
  -16.4122  -28.9172   27.7813 C   0  0  0  0  0  0  0  0  0  0  0  0
  -15.1477  -28.3505   27.7470 C   0  0  0  0  0  0  0  0  0  0  0  0
  -17.5675  -28.6373   26.8709 C   0  0  0  0  0  0  0  0  0  0  0  0
  -18.4732  -29.8428   27.1602 C   0  0  0  0  0  0  0  0  0  0  0  0
  -18.1923  -30.2671   28.6091 C   0  0  0  0  0  0  0  0  0  0  0  0
  -11.1894  -24.3702   30.8416 N   0  0  0  0  0  0  0  0  0  0  0  0
  -11.0233  -20.8049   31.3211 H   0  0  0  0  0  0  0  0  0  0  0  0
  -10.2067  -21.7286   32.5294 H   0  0  0  0  0  0  0  0  0  0  0  0
  -11.4671  -20.6015   33.0211 H   0  0  0  0  0  0  0  0  0  0  0  0
  -14.0447  -21.7846   31.2674 H   0  0  0  0  0  0  0  0  0  0  0  0
  -14.2228  -22.4880   32.8852 H   0  0  0  0  0  0  0  0  0  0  0  0
  -13.5668  -20.9599   32.7752 H   0  0  0  0  0  0  0  0  0  0  0  0
  -10.9953  -24.7066   32.4050 H   0  0  0  0  0  0  0  0  0  0  0  0
  -12.0412  -21.6031   29.3615 H   0  0  0  0  0  0  0  0  0  0  0  0
  -11.5992  -23.6640   27.6422 H   0  0  0  0  0  0  0  0  0  0  0  0
  -11.3585  -26.7643   30.0335 H   0  0  0  0  0  0  0  0  0  0  0  0
  -12.1072  -28.8293   28.2314 H   0  0  0  0  0  0  0  0  0  0  0  0
  -12.5098  -28.2310   29.8167 H   0  0  0  0  0  0  0  0  0  0  0  0
  -13.8575  -29.9965   30.4495 H   0  0  0  0  0  0  0  0  0  0  0  0
  -16.1297  -30.9540   30.4939 H   0  0  0  0  0  0  0  0  0  0  0  0
  -14.9085  -27.6509   26.9504 H   0  0  0  0  0  0  0  0  0  0  0  0
  -18.0529  -27.6986   27.1571 H   0  0  0  0  0  0  0  0  0  0  0  0
  -17.2727  -28.6027   25.8184 H   0  0  0  0  0  0  0  0  0  0  0  0
  -19.5310  -29.6223   26.9867 H   0  0  0  0  0  0  0  0  0  0  0  0
  -18.2004  -30.6666   26.4857 H   0  0  0  0  0  0  0  0  0  0  0  0
  -18.3273  -31.3440   28.7426 H   0  0  0  0  0  0  0  0  0  0  0  0
  -18.8265  -29.7182   29.3128 H   0  0  0  0  0  0  0  0  0  0  0  0
  1  2  1  0
  2  3  1  0
  2  4  1  0
  4  5  2  0
  4  6  1  0
  2  7  1  0
  7  8  1  0
  8  9  2  0
  9 10  1  0
 10 11  1  0
 11 12  1  0
 12 13  2  0
 12 14  1  0
 14 15  1  0
 15 16  2  0
 16 17  1  0
 17 18  2  0
 18 19  1  0
 19 20  2  0
 19 21  1  0
 21 22  1  0
 22 23  1  0
 10 24  2  0
 24  7  1  0
 20 15  1  0
 23 18  1  0
  1 25  1  0
  1 26  1  0
  1 27  1  0
  3 28  1  0
  3 29  1  0
  3 30  1  0
  6 31  1  0
  8 32  1  0
  9 33  1  0
 11 34  1  0
 14 35  1  0
 14 36  1  0
 16 37  1  0
 17 38  1  0
 20 39  1  0
 21 40  1  0
 21 41  1  0
 22 42  1  0
 22 43  1  0
 23 44  1  0
 23 45  1  0
M  END
>  <Energy>  (412) 
43.408763035213163

>  <compound_id>  (412) 
51852

>  <target_id>  (412) 
1

>  <reference_id>  (412) 
66

>  <inspiration_ids>  (412) 
[96, 66]

>  <energy_score>  (412) 
1.4322205177411433

>  <distance_score>  (412) 
3.993471858799497

>  <path>  (412) 
/opt/xchem-fragalysis-2/maxwin/BulkDock/SCRATCH/511025/C51852-P66/C51852-P66.minimised.mol

>  <scratch_subdir>  (412) 
/opt/xchem-fragalysis-2/maxwin/BulkDock/SCRATCH/511025/C51852-P66

>  <fragmenstein_runtime>  (412) 
14.74459958076477

>  <fragmenstein_outcome>  (412) 
too moved

>  <fragmenstein_mode>  (412) 
expansion

>  <fragmenstein_error>  (412) 


$$$$
C51854-P96
     RDKit          3D

 39 40  0  0  0  0  0  0  0  0999 V2000
   -3.3906  -19.6233   24.7064 C   0  0  0  0  0  0  0  0  0  0  0  0
   -3.2105  -18.7870   26.1011 C   0  0  0  0  0  0  0  0  0  0  0  0
   -4.6327  -18.7792   26.4496 C   0  0  0  0  0  0  0  0  0  0  0  0
   -2.7465  -19.6847   27.3238 C   0  0  0  0  0  0  0  0  0  0  0  0
   -2.9564  -20.8978   27.3767 O   0  0  0  0  0  0  0  0  0  0  0  0
   -2.0508  -19.1676   28.3307 O   0  0  0  0  0  0  0  0  0  0  0  0
   -2.5134  -17.4569   25.8651 N   0  0  0  0  0  0  0  0  0  0  0  0
   -2.8135  -15.7440   25.7683 C   0  0  0  0  0  0  0  0  0  0  0  0
   -2.5135  -15.4648   24.3838 C   0  0  0  0  0  0  0  0  0  0  0  0
   -2.5942  -14.0392   23.1001 N   0  0  0  0  0  0  0  0  0  0  0  0
   -1.2454  -12.7994   22.4280 C   0  0  0  0  0  0  0  0  0  0  0  0
   -0.1944  -12.8536   22.9395 O   0  0  0  0  0  0  0  0  0  0  0  0
   -1.1743  -11.3216   20.8860 C   0  0  0  0  0  0  0  0  0  0  0  0
   -0.9429   -9.5631   20.3791 O   0  0  0  0  0  0  0  0  0  0  0  0
    0.1971   -8.9165   19.8613 C   0  0  0  0  0  0  0  0  0  0  0  0
    1.5427   -9.1790   20.1389 C   0  0  0  0  0  0  0  0  0  0  0  0
    2.5715   -8.3927   19.5738 C   0  0  0  0  0  0  0  0  0  0  0  0
    2.2717   -7.3293   18.7286 C   0  0  0  0  0  0  0  0  0  0  0  0
    0.9360   -7.0449   18.4603 C   0  0  0  0  0  0  0  0  0  0  0  0
   -0.0827   -7.8244   19.0283 C   0  0  0  0  0  0  0  0  0  0  0  0
   -1.2432  -16.2210   25.1800 C   0  0  0  0  0  0  0  0  0  0  0  0
   -1.2704  -17.3138   25.8943 N   0  0  0  0  0  0  0  0  0  0  0  0
   -3.6702  -20.6652   24.9132 H   0  0  0  0  0  0  0  0  0  0  0  0
   -4.1706  -19.2125   24.0656 H   0  0  0  0  0  0  0  0  0  0  0  0
   -2.5281  -19.6482   24.0419 H   0  0  0  0  0  0  0  0  0  0  0  0
   -4.8669  -17.8191   26.8153 H   0  0  0  0  0  0  0  0  0  0  0  0
   -4.9639  -19.6334   27.0363 H   0  0  0  0  0  0  0  0  0  0  0  0
   -5.2344  -18.6552   25.6014 H   0  0  0  0  0  0  0  0  0  0  0  0
   -1.8308  -19.9132   28.9240 H   0  0  0  0  0  0  0  0  0  0  0  0
   -3.5337  -15.4442   26.5071 H   0  0  0  0  0  0  0  0  0  0  0  0
   -3.4236  -13.9595   22.5278 H   0  0  0  0  0  0  0  0  0  0  0  0
   -0.2091  -10.7158   21.0901 H   0  0  0  0  0  0  0  0  0  0  0  0
   -2.0859  -11.0531   20.0876 H   0  0  0  0  0  0  0  0  0  0  0  0
    1.8252   -9.9873   20.8065 H   0  0  0  0  0  0  0  0  0  0  0  0
    3.6073   -8.6185   19.8047 H   0  0  0  0  0  0  0  0  0  0  0  0
    3.0631   -6.7271   18.2927 H   0  0  0  0  0  0  0  0  0  0  0  0
    0.6786   -6.2118   17.8117 H   0  0  0  0  0  0  0  0  0  0  0  0
   -1.1187   -7.5746   18.8130 H   0  0  0  0  0  0  0  0  0  0  0  0
   -0.2725  -15.9080   25.4251 H   0  0  0  0  0  0  0  0  0  0  0  0
  1  2  1  0
  2  3  1  0
  2  4  1  0
  4  5  2  0
  4  6  1  0
  2  7  1  0
  7  8  1  0
  8  9  2  0
  9 10  1  0
 10 11  1  0
 11 12  2  0
 11 13  1  0
 13 14  1  0
 14 15  1  0
 15 16  2  0
 16 17  1  0
 17 18  2  0
 18 19  1  0
 19 20  2  0
  9 21  1  0
 21 22  2  0
 22  7  1  0
 20 15  1  0
  1 23  1  0
  1 24  1  0
  1 25  1  0
  3 26  1  0
  3 27  1  0
  3 28  1  0
  6 29  1  0
  8 30  1  0
 10 31  1  0
 13 32  1  0
 13 33  1  0
 16 34  1  0
 17 35  1  0
 18 36  1  0
 19 37  1  0
 20 38  1  0
 21 39  1  0
M  END
>  <Energy>  (413) 
730.71493916433326

>  <compound_id>  (413) 
51854

>  <target_id>  (413) 
1

>  <reference_id>  (413) 
96

>  <inspiration_ids>  (413) 
[96, 66]

>  <energy_score>  (413) 
634.3031653200907

>  <distance_score>  (413) 
13.550858958734796

>  <path>  (413) 
/opt/xchem-fragalysis-2/maxwin/BulkDock/SCRATCH/511025/C51854-P96/C51854-P96.minimised.mol

>  <scratch_subdir>  (413) 
/opt/xchem-fragalysis-2/maxwin/BulkDock/SCRATCH/511025/C51854-P96

>  <fragmenstein_runtime>  (413) 
24.911555767059326

>  <fragmenstein_outcome>  (413) 
too moved

>  <fragmenstein_mode>  (413) 
expansion

>  <fragmenstein_error>  (413) 


$$$$
C51854-P66
     RDKit          3D

 39 40  0  0  0  0  0  0  0  0999 V2000
   -6.4731   -9.6497   22.4034 C   0  0  0  0  0  0  0  0  0  0  0  0
   -5.4982   -9.4826   21.2124 C   0  0  0  0  0  0  0  0  0  0  0  0
   -5.8062   -8.1312   20.5311 C   0  0  0  0  0  0  0  0  0  0  0  0
   -5.7578  -10.5485   20.1501 C   0  0  0  0  0  0  0  0  0  0  0  0
   -5.0035  -10.9315   19.2675 O   0  0  0  0  0  0  0  0  0  0  0  0
   -7.0168  -11.0475   20.1538 O   0  0  0  0  0  0  0  0  0  0  0  0
   -4.0885   -9.4498   21.6728 N   0  0  0  0  0  0  0  0  0  0  0  0
   -2.9300   -9.6127   20.9322 C   0  0  0  0  0  0  0  0  0  0  0  0
   -1.9680   -8.8049   21.5076 C   0  0  0  0  0  0  0  0  0  0  0  0
   -0.7107   -8.5318   21.0042 N   0  0  0  0  0  0  0  0  0  0  0  0
    0.3031   -7.5610   21.4277 C   0  0  0  0  0  0  0  0  0  0  0  0
    0.3266   -6.8126   22.3689 O   0  0  0  0  0  0  0  0  0  0  0  0
    1.4978   -7.5385   20.3913 C   0  0  0  0  0  0  0  0  0  0  0  0
    2.4567   -6.4564   20.5463 O   0  0  0  0  0  0  0  0  0  0  0  0
    3.3321   -6.3830   19.4944 C   0  0  0  0  0  0  0  0  0  0  0  0
    4.6434   -6.7935   19.6912 C   0  0  0  0  0  0  0  0  0  0  0  0
    5.5290   -6.7848   18.6197 C   0  0  0  0  0  0  0  0  0  0  0  0
    5.1195   -6.3310   17.3666 C   0  0  0  0  0  0  0  0  0  0  0  0
    3.8217   -5.8577   17.1903 C   0  0  0  0  0  0  0  0  0  0  0  0
    2.9320   -5.8713   18.2610 C   0  0  0  0  0  0  0  0  0  0  0  0
   -2.5937   -8.3405   22.6817 C   0  0  0  0  0  0  0  0  0  0  0  0
   -3.8130   -8.8540   22.8636 N   0  0  0  0  0  0  0  0  0  0  0  0
   -6.3519   -8.8545   23.1479 H   0  0  0  0  0  0  0  0  0  0  0  0
   -6.3305  -10.6070   22.9139 H   0  0  0  0  0  0  0  0  0  0  0  0
   -7.5196   -9.6089   22.0789 H   0  0  0  0  0  0  0  0  0  0  0  0
   -6.8390   -8.0963   20.1647 H   0  0  0  0  0  0  0  0  0  0  0  0
   -5.6669   -7.2911   21.2215 H   0  0  0  0  0  0  0  0  0  0  0  0
   -5.1516   -7.9596   19.6678 H   0  0  0  0  0  0  0  0  0  0  0  0
   -7.0292  -11.6623   19.3908 H   0  0  0  0  0  0  0  0  0  0  0  0
   -2.9191  -10.1521   19.9966 H   0  0  0  0  0  0  0  0  0  0  0  0
   -0.3569   -9.0568   20.1986 H   0  0  0  0  0  0  0  0  0  0  0  0
    1.0474   -7.4921   19.3919 H   0  0  0  0  0  0  0  0  0  0  0  0
    2.0363   -8.4837   20.5066 H   0  0  0  0  0  0  0  0  0  0  0  0
    4.9547   -7.1699   20.6614 H   0  0  0  0  0  0  0  0  0  0  0  0
    6.5196   -7.1823   18.7808 H   0  0  0  0  0  0  0  0  0  0  0  0
    5.7974   -6.3413   16.5208 H   0  0  0  0  0  0  0  0  0  0  0  0
    3.5014   -5.4873   16.2201 H   0  0  0  0  0  0  0  0  0  0  0  0
    1.9180   -5.5046   18.1276 H   0  0  0  0  0  0  0  0  0  0  0  0
   -2.1886   -7.6657   23.4261 H   0  0  0  0  0  0  0  0  0  0  0  0
  1  2  1  0
  2  3  1  0
  2  4  1  0
  4  5  2  0
  4  6  1  0
  2  7  1  0
  7  8  1  0
  8  9  2  0
  9 10  1  0
 10 11  1  0
 11 12  2  0
 11 13  1  0
 13 14  1  0
 14 15  1  0
 15 16  2  0
 16 17  1  0
 17 18  2  0
 18 19  1  0
 19 20  2  0
  9 21  1  0
 21 22  2  0
 22  7  1  0
 20 15  1  0
  1 23  1  0
  1 24  1  0
  1 25  1  0
  3 26  1  0
  3 27  1  0
  3 28  1  0
  6 29  1  0
  8 30  1  0
 10 31  1  0
 13 32  1  0
 13 33  1  0
 16 34  1  0
 17 35  1  0
 18 36  1  0
 19 37  1  0
 20 38  1  0
 21 39  1  0
M  END
>  <Energy>  (414) 
57.787665427618386

>  <compound_id>  (414) 
51854

>  <target_id>  (414) 
1

>  <reference_id>  (414) 
66

>  <inspiration_ids>  (414) 
[96, 66]

>  <energy_score>  (414) 
-38.62410841662938

>  <distance_score>  (414) 
15.527115130197416

>  <path>  (414) 
/opt/xchem-fragalysis-2/maxwin/BulkDock/SCRATCH/511025/C51854-P66/C51854-P66.minimised.mol

>  <scratch_subdir>  (414) 
/opt/xchem-fragalysis-2/maxwin/BulkDock/SCRATCH/511025/C51854-P66

>  <fragmenstein_runtime>  (414) 
26.78301739692688

>  <fragmenstein_outcome>  (414) 
too moved

>  <fragmenstein_mode>  (414) 
expansion

>  <fragmenstein_error>  (414) 


$$$$
C51856-P96
     RDKit          3D

 38 39  0  0  0  0  0  0  0  0999 V2000
   -7.0501  -19.7761   21.1994 C   0  0  0  0  0  0  0  0  0  0  0  0
   -6.7798  -19.0153   19.8862 C   0  0  0  0  0  0  0  0  0  0  0  0
   -7.8984  -19.1663   18.8137 C   0  0  0  0  0  0  0  0  0  0  0  0
   -5.5637  -19.7740   19.2538 C   0  0  0  0  0  0  0  0  0  0  0  0
   -4.4602  -19.3276   18.9742 O   0  0  0  0  0  0  0  0  0  0  0  0
   -5.8139  -21.0999   19.0106 O   0  0  0  0  0  0  0  0  0  0  0  0
   -6.5186  -17.5478   20.0222 N   0  0  0  0  0  0  0  0  0  0  0  0
   -6.3815  -16.5982   21.0866 C   0  0  0  0  0  0  0  0  0  0  0  0
   -5.2815  -15.7511   20.7184 C   0  0  0  0  0  0  0  0  0  0  0  0
   -4.0948  -14.7428   21.3333 N   0  0  0  0  0  0  0  0  0  0  0  0
   -2.6954  -13.7451   20.4450 C   0  0  0  0  0  0  0  0  0  0  0  0
   -2.6959  -13.7586   19.2474 O   0  0  0  0  0  0  0  0  0  0  0  0
   -1.0932  -12.5913   21.2430 C   0  0  0  0  0  0  0  0  0  0  0  0
   -0.5098  -10.5765   20.8149 C   0  0  0  0  0  0  0  0  0  0  0  0
   -1.1858   -9.4557   19.9912 C   0  0  0  0  0  0  0  0  0  0  0  0
   -0.5360   -8.2458   19.6082 C   0  0  0  0  0  0  0  0  0  0  0  0
    0.7819   -7.9529   19.9841 C   0  0  0  0  0  0  0  0  0  0  0  0
    1.4974   -8.8398   20.7787 C   0  0  0  0  0  0  0  0  0  0  0  0
    0.9075  -10.0594   21.1970 C   0  0  0  0  0  0  0  0  0  0  0  0
   -5.0849  -16.2510   19.3292 C   0  0  0  0  0  0  0  0  0  0  0  0
   -6.1046  -16.9743   18.8832 N   0  0  0  0  0  0  0  0  0  0  0  0
   -6.1911  -20.3515   21.5549 H   0  0  0  0  0  0  0  0  0  0  0  0
   -7.7832  -20.5776   21.0596 H   0  0  0  0  0  0  0  0  0  0  0  0
   -7.3591  -19.1173   22.0127 H   0  0  0  0  0  0  0  0  0  0  0  0
   -8.3948  -20.1414   18.8639 H   0  0  0  0  0  0  0  0  0  0  0  0
   -7.4884  -19.0854   17.7977 H   0  0  0  0  0  0  0  0  0  0  0  0
   -8.6590  -18.3826   18.8855 H   0  0  0  0  0  0  0  0  0  0  0  0
   -6.6984  -21.4161   19.2768 H   0  0  0  0  0  0  0  0  0  0  0  0
   -6.8698  -16.8066   22.0219 H   0  0  0  0  0  0  0  0  0  0  0  0
   -4.0250  -14.5752   22.3218 H   0  0  0  0  0  0  0  0  0  0  0  0
   -1.1124  -12.7582   22.3340 H   0  0  0  0  0  0  0  0  0  0  0  0
   -0.4284  -13.3044   20.7696 H   0  0  0  0  0  0  0  0  0  0  0  0
   -2.1775   -9.6271   19.5611 H   0  0  0  0  0  0  0  0  0  0  0  0
   -1.0731   -7.5429   18.9735 H   0  0  0  0  0  0  0  0  0  0  0  0
    1.2469   -7.0306   19.6464 H   0  0  0  0  0  0  0  0  0  0  0  0
    2.5248   -8.6211   21.0537 H   0  0  0  0  0  0  0  0  0  0  0  0
    1.5502  -10.7270   21.7749 H   0  0  0  0  0  0  0  0  0  0  0  0
   -4.2374  -16.0576   18.6853 H   0  0  0  0  0  0  0  0  0  0  0  0
  1  2  1  0
  2  3  1  0
  2  4  1  0
  4  5  2  0
  4  6  1  0
  2  7  1  0
  7  8  1  0
  8  9  2  0
  9 10  1  0
 10 11  1  0
 11 12  2  0
 11 13  1  0
 13 14  1  0
 14 15  2  0
 15 16  1  0
 16 17  2  0
 17 18  1  0
 18 19  2  0
  9 20  1  0
 20 21  2  0
 21  7  1  0
 19 14  1  0
  1 22  1  0
  1 23  1  0
  1 24  1  0
  3 25  1  0
  3 26  1  0
  3 27  1  0
  6 28  1  0
  8 29  1  0
 10 30  1  0
 13 31  1  0
 13 32  1  0
 15 33  1  0
 16 34  1  0
 17 35  1  0
 18 36  1  0
 19 37  1  0
 20 38  1  0
M  END
>  <Energy>  (415) 
476.85964080581249

>  <compound_id>  (415) 
51856

>  <target_id>  (415) 
1

>  <reference_id>  (415) 
96

>  <inspiration_ids>  (415) 
[96, 66]

>  <energy_score>  (415) 
398.00315121951974

>  <distance_score>  (415) 
14.554239064564523

>  <path>  (415) 
/opt/xchem-fragalysis-2/maxwin/BulkDock/SCRATCH/511025/C51856-P96/C51856-P96.minimised.mol

>  <scratch_subdir>  (415) 
/opt/xchem-fragalysis-2/maxwin/BulkDock/SCRATCH/511025/C51856-P96

>  <fragmenstein_runtime>  (415) 
22.630434274673462

>  <fragmenstein_outcome>  (415) 
too moved

>  <fragmenstein_mode>  (415) 
expansion

>  <fragmenstein_error>  (415) 


$$$$
C51856-P66
     RDKit          3D

 38 39  0  0  0  0  0  0  0  0999 V2000
   -0.9716  -17.1607   30.4678 C   0  0  0  0  0  0  0  0  0  0  0  0
   -2.3135  -16.4449   30.2067 C   0  0  0  0  0  0  0  0  0  0  0  0
   -3.4555  -17.3499   30.7166 C   0  0  0  0  0  0  0  0  0  0  0  0
   -2.4387  -15.1495   31.0046 C   0  0  0  0  0  0  0  0  0  0  0  0
   -3.3916  -14.3838   31.0124 O   0  0  0  0  0  0  0  0  0  0  0  0
   -1.3870  -14.8776   31.8078 O   0  0  0  0  0  0  0  0  0  0  0  0
   -2.4593  -16.1853   28.7550 N   0  0  0  0  0  0  0  0  0  0  0  0
   -1.8242  -15.1783   28.0123 C   0  0  0  0  0  0  0  0  0  0  0  0
   -2.1349  -14.8618   26.5316 C   0  0  0  0  0  0  0  0  0  0  0  0
   -1.0292  -13.7616   25.4279 N   0  0  0  0  0  0  0  0  0  0  0  0
    0.8741  -13.4119   25.6022 C   0  0  0  0  0  0  0  0  0  0  0  0
    1.6126  -13.7624   26.4920 O   0  0  0  0  0  0  0  0  0  0  0  0
    1.9547  -12.5063   24.1154 C   0  0  0  0  0  0  0  0  0  0  0  0
    3.4107  -11.9785   22.9346 C   0  0  0  0  0  0  0  0  0  0  0  0
    4.1228  -10.5787   22.6109 C   0  0  0  0  0  0  0  0  0  0  0  0
    5.2364  -10.2225   21.6841 C   0  0  0  0  0  0  0  0  0  0  0  0
    5.7549  -11.1228   20.7543 C   0  0  0  0  0  0  0  0  0  0  0  0
    5.0754  -12.3387   20.6527 C   0  0  0  0  0  0  0  0  0  0  0  0
    3.8776  -12.6960   21.6239 C   0  0  0  0  0  0  0  0  0  0  0  0
   -2.4512  -16.6855   26.7787 C   0  0  0  0  0  0  0  0  0  0  0  0
   -2.6827  -17.2175   27.9700 N   0  0  0  0  0  0  0  0  0  0  0  0
   -0.1192  -16.5438   30.1618 H   0  0  0  0  0  0  0  0  0  0  0  0
   -0.8435  -17.3944   31.5311 H   0  0  0  0  0  0  0  0  0  0  0  0
   -0.9040  -18.1047   29.9145 H   0  0  0  0  0  0  0  0  0  0  0  0
   -3.4313  -17.4399   31.8092 H   0  0  0  0  0  0  0  0  0  0  0  0
   -4.4389  -16.9498   30.4423 H   0  0  0  0  0  0  0  0  0  0  0  0
   -3.3815  -18.3613   30.3038 H   0  0  0  0  0  0  0  0  0  0  0  0
   -1.6031  -13.9919   32.1723 H   0  0  0  0  0  0  0  0  0  0  0  0
   -0.9334  -14.9310   28.5325 H   0  0  0  0  0  0  0  0  0  0  0  0
   -1.3692  -13.3074   24.6832 H   0  0  0  0  0  0  0  0  0  0  0  0
    2.7426  -13.2452   24.3091 H   0  0  0  0  0  0  0  0  0  0  0  0
    1.9425  -11.6347   24.6485 H   0  0  0  0  0  0  0  0  0  0  0  0
    3.7394   -9.6164   22.9544 H   0  0  0  0  0  0  0  0  0  0  0  0
    5.5909   -9.1929   21.6880 H   0  0  0  0  0  0  0  0  0  0  0  0
    6.5509  -10.8553   20.0712 H   0  0  0  0  0  0  0  0  0  0  0  0
    5.3146  -13.0415   19.8579 H   0  0  0  0  0  0  0  0  0  0  0  0
    3.3850  -13.6067   21.3485 H   0  0  0  0  0  0  0  0  0  0  0  0
   -2.4065  -17.3508   25.9279 H   0  0  0  0  0  0  0  0  0  0  0  0
  1  2  1  0
  2  3  1  0
  2  4  1  0
  4  5  2  0
  4  6  1  0
  2  7  1  0
  7  8  1  0
  8  9  2  0
  9 10  1  0
 10 11  1  0
 11 12  2  0
 11 13  1  0
 13 14  1  0
 14 15  2  0
 15 16  1  0
 16 17  2  0
 17 18  1  0
 18 19  2  0
  9 20  1  0
 20 21  2  0
 21  7  1  0
 19 14  1  0
  1 22  1  0
  1 23  1  0
  1 24  1  0
  3 25  1  0
  3 26  1  0
  3 27  1  0
  6 28  1  0
  8 29  1  0
 10 30  1  0
 13 31  1  0
 13 32  1  0
 15 33  1  0
 16 34  1  0
 17 35  1  0
 18 36  1  0
 19 37  1  0
 20 38  1  0
M  END
>  <Energy>  (416) 
616.22941095337535

>  <compound_id>  (416) 
51856

>  <target_id>  (416) 
1

>  <reference_id>  (416) 
66

>  <inspiration_ids>  (416) 
[96, 66]

>  <energy_score>  (416) 
537.372921367083

>  <distance_score>  (416) 
13.65998340921199

>  <path>  (416) 
/opt/xchem-fragalysis-2/maxwin/BulkDock/SCRATCH/511025/C51856-P66/C51856-P66.minimised.mol

>  <scratch_subdir>  (416) 
/opt/xchem-fragalysis-2/maxwin/BulkDock/SCRATCH/511025/C51856-P66

>  <fragmenstein_runtime>  (416) 
23.91020154953003

>  <fragmenstein_outcome>  (416) 
too moved

>  <fragmenstein_mode>  (416) 
expansion

>  <fragmenstein_error>  (416) 


$$$$
C36654-P96
     RDKit          3D

 35 36  0  0  0  0  0  0  0  0999 V2000
   -9.8637  -19.1546   29.4981 C   0  0  0  0  0  0  0  0  0  0  0  0
   -8.6297  -18.2606   28.0304 C   0  0  0  0  0  0  0  0  0  0  0  0
   -7.0967  -19.2582   27.3813 C   0  0  0  0  0  0  0  0  0  0  0  0
   -9.4982  -20.0887   27.9201 C   0  0  0  0  0  0  0  0  0  0  0  0
  -10.6326  -20.4272   27.5147 O   0  0  0  0  0  0  0  0  0  0  0  0
   -8.7941  -21.2328   28.4035 O   0  0  0  0  0  0  0  0  0  0  0  0
   -7.7594  -16.5262   27.6583 N   0  0  0  0  0  0  0  0  0  0  0  0
   -6.3136  -15.9595   26.6337 C   0  0  0  0  0  0  0  0  0  0  0  0
   -4.7658  -15.2749   26.9734 C   0  0  0  0  0  0  0  0  0  0  0  0
   -2.8967  -15.2599   26.7222 N   0  0  0  0  0  0  0  0  0  0  0  0
   -1.6054  -13.8308   26.8079 C   0  0  0  0  0  0  0  0  0  0  0  0
   -1.9828  -12.7133   26.9206 O   0  0  0  0  0  0  0  0  0  0  0  0
    0.5146  -14.0922   27.0052 C   0  0  0  0  0  0  0  0  0  0  0  0
    2.0743  -13.3770   26.4398 C   0  0  0  0  0  0  0  0  0  0  0  0
    3.3616  -13.9433   26.1695 C   0  0  0  0  0  0  0  0  0  0  0  0
    4.6199  -12.9311   26.0571 C   0  0  0  0  0  0  0  0  0  0  0  0
    4.2508  -11.7224   25.6632 C   0  0  0  0  0  0  0  0  0  0  0  0
    2.6078  -11.7903   25.8316 S   0  0  0  0  0  0  0  0  0  0  0  0
   -5.5455  -15.1546   28.3822 C   0  0  0  0  0  0  0  0  0  0  0  0
   -6.8474  -15.6168   28.7777 N   0  0  0  0  0  0  0  0  0  0  0  0
   -9.8105  -18.9135   30.5832 H   0  0  0  0  0  0  0  0  0  0  0  0
  -10.9687  -19.2035   29.3107 H   0  0  0  0  0  0  0  0  0  0  0  0
   -9.8869  -20.2167   29.7746 H   0  0  0  0  0  0  0  0  0  0  0  0
   -6.4124  -20.0279   27.7777 H   0  0  0  0  0  0  0  0  0  0  0  0
   -6.5868  -18.6094   26.6393 H   0  0  0  0  0  0  0  0  0  0  0  0
   -7.5505  -20.1313   27.0418 H   0  0  0  0  0  0  0  0  0  0  0  0
   -9.4730  -21.9374   28.2716 H   0  0  0  0  0  0  0  0  0  0  0  0
   -6.9997  -15.1609   26.3216 H   0  0  0  0  0  0  0  0  0  0  0  0
   -2.4123  -16.1328   26.5356 H   0  0  0  0  0  0  0  0  0  0  0  0
    0.7215  -15.1506   26.7517 H   0  0  0  0  0  0  0  0  0  0  0  0
    0.7028  -13.9122   28.0885 H   0  0  0  0  0  0  0  0  0  0  0  0
    3.5025  -14.9819   26.3096 H   0  0  0  0  0  0  0  0  0  0  0  0
    5.6596  -13.1634   26.2827 H   0  0  0  0  0  0  0  0  0  0  0  0
    4.8603  -10.8593   25.4323 H   0  0  0  0  0  0  0  0  0  0  0  0
   -4.9941  -14.7324   29.2148 H   0  0  0  0  0  0  0  0  0  0  0  0
  1  2  1  0
  2  3  1  0
  2  4  1  0
  4  5  2  0
  4  6  1  0
  2  7  1  0
  7  8  1  0
  8  9  2  0
  9 10  1  0
 10 11  1  0
 11 12  2  0
 11 13  1  0
 13 14  1  0
 14 15  2  0
 15 16  1  0
 16 17  2  0
 17 18  1  0
  9 19  1  0
 19 20  2  0
 20  7  1  0
 18 14  1  0
  1 21  1  0
  1 22  1  0
  1 23  1  0
  3 24  1  0
  3 25  1  0
  3 26  1  0
  6 27  1  0
  8 28  1  0
 10 29  1  0
 13 30  1  0
 13 31  1  0
 15 32  1  0
 16 33  1  0
 17 34  1  0
 19 35  1  0
M  END
>  <Energy>  (417) 
1220.9342258895624

>  <compound_id>  (417) 
36654

>  <target_id>  (417) 
1

>  <reference_id>  (417) 
96

>  <inspiration_ids>  (417) 
[96, 66]

>  <energy_score>  (417) 
1134.212627562196

>  <distance_score>  (417) 
16.15955917305132

>  <path>  (417) 
/opt/xchem-fragalysis-2/maxwin/BulkDock/SCRATCH/511025/C36654-P96/C36654-P96.minimised.mol

>  <scratch_subdir>  (417) 
/opt/xchem-fragalysis-2/maxwin/BulkDock/SCRATCH/511025/C36654-P96

>  <fragmenstein_runtime>  (417) 
12.346324443817139

>  <fragmenstein_outcome>  (417) 
too moved

>  <fragmenstein_mode>  (417) 
expansion

>  <fragmenstein_error>  (417) 


$$$$
C36654-P66
     RDKit          3D

 35 36  0  0  0  0  0  0  0  0999 V2000
   -0.9645  -15.8659   28.6998 C   0  0  0  0  0  0  0  0  0  0  0  0
   -1.9574  -15.2328   27.2972 C   0  0  0  0  0  0  0  0  0  0  0  0
   -2.9189  -14.4784   28.4918 C   0  0  0  0  0  0  0  0  0  0  0  0
   -2.4720  -16.8328   27.3384 C   0  0  0  0  0  0  0  0  0  0  0  0
   -3.3963  -17.2089   28.0557 O   0  0  0  0  0  0  0  0  0  0  0  0
   -1.8509  -17.8357   26.6805 O   0  0  0  0  0  0  0  0  0  0  0  0
   -1.5663  -14.1914   25.6668 N   0  0  0  0  0  0  0  0  0  0  0  0
   -0.6319  -14.3675   24.2137 C   0  0  0  0  0  0  0  0  0  0  0  0
    0.9016  -13.7791   24.0740 C   0  0  0  0  0  0  0  0  0  0  0  0
    1.3505  -12.0665   23.2328 N   0  0  0  0  0  0  0  0  0  0  0  0
    0.2969  -10.8682   22.2238 C   0  0  0  0  0  0  0  0  0  0  0  0
   -0.8813  -11.0326   21.8608 O   0  0  0  0  0  0  0  0  0  0  0  0
    0.9254   -9.2117   21.5690 C   0  0  0  0  0  0  0  0  0  0  0  0
    2.3361   -8.6095   21.0965 C   0  0  0  0  0  0  0  0  0  0  0  0
    3.4776   -8.2260   21.7995 C   0  0  0  0  0  0  0  0  0  0  0  0
    4.5061   -7.6329   20.9925 C   0  0  0  0  0  0  0  0  0  0  0  0
    4.1218   -7.5166   19.6809 C   0  0  0  0  0  0  0  0  0  0  0  0
    2.5270   -8.0806   19.4392 S   0  0  0  0  0  0  0  0  0  0  0  0
    1.1194  -13.5046   25.6516 C   0  0  0  0  0  0  0  0  0  0  0  0
   -0.0139  -13.2584   26.2273 N   0  0  0  0  0  0  0  0  0  0  0  0
   -1.6432  -16.1395   29.5276 H   0  0  0  0  0  0  0  0  0  0  0  0
   -0.2361  -15.2345   29.1616 H   0  0  0  0  0  0  0  0  0  0  0  0
   -0.4878  -16.8509   28.5310 H   0  0  0  0  0  0  0  0  0  0  0  0
   -2.4553  -14.3296   29.4665 H   0  0  0  0  0  0  0  0  0  0  0  0
   -3.6689  -15.1785   28.8901 H   0  0  0  0  0  0  0  0  0  0  0  0
   -3.3779  -13.5294   28.2282 H   0  0  0  0  0  0  0  0  0  0  0  0
   -2.3991  -18.6031   26.9604 H   0  0  0  0  0  0  0  0  0  0  0  0
   -1.2433  -14.9214   23.5375 H   0  0  0  0  0  0  0  0  0  0  0  0
    2.2347  -11.6428   23.4512 H   0  0  0  0  0  0  0  0  0  0  0  0
    0.5260   -8.4650   22.2876 H   0  0  0  0  0  0  0  0  0  0  0  0
    0.2285   -9.0114   20.7473 H   0  0  0  0  0  0  0  0  0  0  0  0
    3.5806   -8.3670   22.8636 H   0  0  0  0  0  0  0  0  0  0  0  0
    5.4646   -7.3041   21.3716 H   0  0  0  0  0  0  0  0  0  0  0  0
    4.6785   -7.1065   18.8512 H   0  0  0  0  0  0  0  0  0  0  0  0
    1.9879  -13.4951   26.2514 H   0  0  0  0  0  0  0  0  0  0  0  0
  1  2  1  0
  2  3  1  0
  2  4  1  0
  4  5  2  0
  4  6  1  0
  2  7  1  0
  7  8  1  0
  8  9  2  0
  9 10  1  0
 10 11  1  0
 11 12  2  0
 11 13  1  0
 13 14  1  0
 14 15  2  0
 15 16  1  0
 16 17  2  0
 17 18  1  0
  9 19  1  0
 19 20  2  0
 20  7  1  0
 18 14  1  0
  1 21  1  0
  1 22  1  0
  1 23  1  0
  3 24  1  0
  3 25  1  0
  3 26  1  0
  6 27  1  0
  8 28  1  0
 10 29  1  0
 13 30  1  0
 13 31  1  0
 15 32  1  0
 16 33  1  0
 17 34  1  0
 19 35  1  0
M  END
>  <Energy>  (418) 
707.24252425049758

>  <compound_id>  (418) 
36654

>  <target_id>  (418) 
1

>  <reference_id>  (418) 
66

>  <inspiration_ids>  (418) 
[96, 66]

>  <energy_score>  (418) 
620.5209259231221

>  <distance_score>  (418) 
14.83283326992775

>  <path>  (418) 
/opt/xchem-fragalysis-2/maxwin/BulkDock/SCRATCH/511025/C36654-P66/C36654-P66.minimised.mol

>  <scratch_subdir>  (418) 
/opt/xchem-fragalysis-2/maxwin/BulkDock/SCRATCH/511025/C36654-P66

>  <fragmenstein_runtime>  (418) 
38.95756006240845

>  <fragmenstein_outcome>  (418) 
too moved

>  <fragmenstein_mode>  (418) 
expansion

>  <fragmenstein_error>  (418) 


$$$$
C51857-P96
     RDKit          3D

 45 47  0  0  0  0  0  0  0  0999 V2000
   -1.8552  -19.3331   27.1565 C   0  0  0  0  0  0  0  0  0  0  0  0
   -2.6611  -19.2050   25.7950 C   0  0  0  0  0  0  0  0  0  0  0  0
   -2.7078  -20.5819   24.9167 C   0  0  0  0  0  0  0  0  0  0  0  0
   -4.0324  -19.3952   26.3396 C   0  0  0  0  0  0  0  0  0  0  0  0
   -4.9856  -18.6659   26.3055 O   0  0  0  0  0  0  0  0  0  0  0  0
   -4.1859  -20.5668   27.0254 O   0  0  0  0  0  0  0  0  0  0  0  0
   -2.2238  -17.9886   24.7836 N   0  0  0  0  0  0  0  0  0  0  0  0
   -0.8055  -16.7849   24.9978 C   0  0  0  0  0  0  0  0  0  0  0  0
    0.5484  -17.1526   23.7683 C   0  0  0  0  0  0  0  0  0  0  0  0
    2.2498  -16.4300   23.7025 N   0  0  0  0  0  0  0  0  0  0  0  0
    3.5079  -16.8728   22.9349 C   0  0  0  0  0  0  0  0  0  0  0  0
    3.6652  -17.7584   22.1223 O   0  0  0  0  0  0  0  0  0  0  0  0
    4.7615  -15.9379   23.3993 C   0  0  0  0  0  0  0  0  0  0  0  0
    5.4138  -14.7367   22.5906 C   0  0  0  0  0  0  0  0  0  0  0  0
    5.0526  -13.3845   22.8521 C   0  0  0  0  0  0  0  0  0  0  0  0
    5.6977  -12.2679   22.2665 C   0  0  0  0  0  0  0  0  0  0  0  0
    6.7843  -12.4798   21.4479 C   0  0  0  0  0  0  0  0  0  0  0  0
    7.2126  -13.7844   21.1956 C   0  0  0  0  0  0  0  0  0  0  0  0
    6.5408  -14.9042   21.7421 C   0  0  0  0  0  0  0  0  0  0  0  0
    8.4007  -13.7576   20.2717 C   0  0  0  0  0  0  0  0  0  0  0  0
    8.8640  -12.3012   20.4023 C   0  0  0  0  0  0  0  0  0  0  0  0
    7.6120  -11.4744   20.7175 C   0  0  0  0  0  0  0  0  0  0  0  0
   -0.4457  -18.2732   22.5809 C   0  0  0  0  0  0  0  0  0  0  0  0
   -1.8684  -18.8031   23.1205 N   0  0  0  0  0  0  0  0  0  0  0  0
   -0.9604  -18.7239   27.2100 H   0  0  0  0  0  0  0  0  0  0  0  0
   -1.5538  -20.3755   27.3374 H   0  0  0  0  0  0  0  0  0  0  0  0
   -2.4422  -19.0852   28.0436 H   0  0  0  0  0  0  0  0  0  0  0  0
   -2.7455  -21.4729   25.5575 H   0  0  0  0  0  0  0  0  0  0  0  0
   -1.8662  -20.7908   24.2534 H   0  0  0  0  0  0  0  0  0  0  0  0
   -3.6014  -20.5971   24.2775 H   0  0  0  0  0  0  0  0  0  0  0  0
   -5.1360  -20.5853   27.2610 H   0  0  0  0  0  0  0  0  0  0  0  0
   -0.8948  -16.2541   25.9221 H   0  0  0  0  0  0  0  0  0  0  0  0
    2.4993  -15.7084   24.3668 H   0  0  0  0  0  0  0  0  0  0  0  0
    5.5766  -16.6532   23.5831 H   0  0  0  0  0  0  0  0  0  0  0  0
    4.5321  -15.5461   24.3993 H   0  0  0  0  0  0  0  0  0  0  0  0
    4.2792  -13.1612   23.5806 H   0  0  0  0  0  0  0  0  0  0  0  0
    5.3550  -11.2628   22.4933 H   0  0  0  0  0  0  0  0  0  0  0  0
    6.9128  -15.9048   21.5295 H   0  0  0  0  0  0  0  0  0  0  0  0
    8.0810  -13.9828   19.2490 H   0  0  0  0  0  0  0  0  0  0  0  0
    9.1823  -14.4560   20.5833 H   0  0  0  0  0  0  0  0  0  0  0  0
    9.3863  -11.9463   19.5084 H   0  0  0  0  0  0  0  0  0  0  0  0
    9.5690  -12.2220   21.2416 H   0  0  0  0  0  0  0  0  0  0  0  0
    7.8536  -10.6022   21.3314 H   0  0  0  0  0  0  0  0  0  0  0  0
    7.1022  -11.1597   19.8012 H   0  0  0  0  0  0  0  0  0  0  0  0
    0.1042  -19.1714   22.4810 H   0  0  0  0  0  0  0  0  0  0  0  0
  1  2  1  0
  2  3  1  0
  2  4  1  0
  4  5  2  0
  4  6  1  0
  2  7  1  0
  7  8  1  0
  8  9  2  0
  9 10  1  0
 10 11  1  0
 11 12  2  0
 11 13  1  0
 13 14  1  0
 14 15  2  0
 15 16  1  0
 16 17  2  0
 17 18  1  0
 18 19  2  0
 18 20  1  0
 20 21  1  0
 21 22  1  0
  9 23  1  0
 23 24  2  0
 24  7  1  0
 19 14  1  0
 22 17  1  0
  1 25  1  0
  1 26  1  0
  1 27  1  0
  3 28  1  0
  3 29  1  0
  3 30  1  0
  6 31  1  0
  8 32  1  0
 10 33  1  0
 13 34  1  0
 13 35  1  0
 15 36  1  0
 16 37  1  0
 19 38  1  0
 20 39  1  0
 20 40  1  0
 21 41  1  0
 21 42  1  0
 22 43  1  0
 22 44  1  0
 23 45  1  0
M  END
>  <Energy>  (419) 
495.58654003058598

>  <compound_id>  (419) 
51857

>  <target_id>  (419) 
1

>  <reference_id>  (419) 
96

>  <inspiration_ids>  (419) 
[96, 66]

>  <energy_score>  (419) 
416.1960840101056

>  <distance_score>  (419) 
14.092490096202898

>  <path>  (419) 
/opt/xchem-fragalysis-2/maxwin/BulkDock/SCRATCH/511025/C51857-P96/C51857-P96.minimised.mol

>  <scratch_subdir>  (419) 
/opt/xchem-fragalysis-2/maxwin/BulkDock/SCRATCH/511025/C51857-P96

>  <fragmenstein_runtime>  (419) 
28.82872200012207

>  <fragmenstein_outcome>  (419) 
too moved

>  <fragmenstein_mode>  (419) 
expansion

>  <fragmenstein_error>  (419) 


$$$$
C51857-P66
     RDKit          3D

 45 47  0  0  0  0  0  0  0  0999 V2000
   -6.5866   -8.2413   22.6361 C   0  0  0  0  0  0  0  0  0  0  0  0
   -6.4650   -9.5066   21.7553 C   0  0  0  0  0  0  0  0  0  0  0  0
   -6.9404  -10.7020   22.5946 C   0  0  0  0  0  0  0  0  0  0  0  0
   -7.3962   -9.2589   20.5630 C   0  0  0  0  0  0  0  0  0  0  0  0
   -7.4608   -8.2309   19.9008 O   0  0  0  0  0  0  0  0  0  0  0  0
   -8.2310  -10.2780   20.2613 O   0  0  0  0  0  0  0  0  0  0  0  0
   -5.0961   -9.7054   21.2503 N   0  0  0  0  0  0  0  0  0  0  0  0
   -3.9234   -9.1236   21.7060 C   0  0  0  0  0  0  0  0  0  0  0  0
   -3.0411   -9.1370   20.6400 C   0  0  0  0  0  0  0  0  0  0  0  0
   -1.8352   -8.4522   20.5723 N   0  0  0  0  0  0  0  0  0  0  0  0
   -1.0085   -8.0629   19.4119 C   0  0  0  0  0  0  0  0  0  0  0  0
   -1.2139   -8.1730   18.2328 O   0  0  0  0  0  0  0  0  0  0  0  0
    0.3225   -7.4014   19.9468 C   0  0  0  0  0  0  0  0  0  0  0  0
    1.3972   -6.9229   18.9429 C   0  0  0  0  0  0  0  0  0  0  0  0
    1.0355   -6.1716   17.8058 C   0  0  0  0  0  0  0  0  0  0  0  0
    1.9761   -5.7976   16.8438 C   0  0  0  0  0  0  0  0  0  0  0  0
    3.2902   -6.1686   17.0349 C   0  0  0  0  0  0  0  0  0  0  0  0
    3.7090   -6.8052   18.2030 C   0  0  0  0  0  0  0  0  0  0  0  0
    2.7749   -7.1825   19.1643 C   0  0  0  0  0  0  0  0  0  0  0  0
    5.1885   -7.0332   18.1635 C   0  0  0  0  0  0  0  0  0  0  0  0
    5.4290   -6.9951   16.6480 C   0  0  0  0  0  0  0  0  0  0  0  0
    4.3913   -6.0425   16.0488 C   0  0  0  0  0  0  0  0  0  0  0  0
   -3.6820   -9.9822   19.7005 C   0  0  0  0  0  0  0  0  0  0  0  0
   -4.8937  -10.3969   20.1002 N   0  0  0  0  0  0  0  0  0  0  0  0
   -6.0224   -8.3386   23.5687 H   0  0  0  0  0  0  0  0  0  0  0  0
   -7.6323   -8.0472   22.9044 H   0  0  0  0  0  0  0  0  0  0  0  0
   -6.2159   -7.3492   22.1166 H   0  0  0  0  0  0  0  0  0  0  0  0
   -7.9780  -10.5681   22.9234 H   0  0  0  0  0  0  0  0  0  0  0  0
   -6.3290  -10.8283   23.4936 H   0  0  0  0  0  0  0  0  0  0  0  0
   -6.9031  -11.6373   22.0276 H   0  0  0  0  0  0  0  0  0  0  0  0
   -8.6693   -9.9736   19.4382 H   0  0  0  0  0  0  0  0  0  0  0  0
   -3.8855   -8.6107   22.6540 H   0  0  0  0  0  0  0  0  0  0  0  0
   -1.3872   -8.1340   21.4199 H   0  0  0  0  0  0  0  0  0  0  0  0
    0.0364   -6.5281   20.5466 H   0  0  0  0  0  0  0  0  0  0  0  0
    0.7863   -8.1319   20.6218 H   0  0  0  0  0  0  0  0  0  0  0  0
   -0.0118   -5.9302   17.6291 H   0  0  0  0  0  0  0  0  0  0  0  0
    1.6578   -5.2903   15.9387 H   0  0  0  0  0  0  0  0  0  0  0  0
    3.0882   -7.7378   20.0451 H   0  0  0  0  0  0  0  0  0  0  0  0
    5.4789   -7.9968   18.5906 H   0  0  0  0  0  0  0  0  0  0  0  0
    5.7071   -6.2189   18.6778 H   0  0  0  0  0  0  0  0  0  0  0  0
    5.2731   -8.0021   16.2354 H   0  0  0  0  0  0  0  0  0  0  0  0
    6.4423   -6.7012   16.3838 H   0  0  0  0  0  0  0  0  0  0  0  0
    4.7252   -5.0084   16.0089 H   0  0  0  0  0  0  0  0  0  0  0  0
    4.0879   -6.3740   15.0512 H   0  0  0  0  0  0  0  0  0  0  0  0
   -3.3052  -10.2971   18.7351 H   0  0  0  0  0  0  0  0  0  0  0  0
  1  2  1  0
  2  3  1  0
  2  4  1  0
  4  5  2  0
  4  6  1  0
  2  7  1  0
  7  8  1  0
  8  9  2  0
  9 10  1  0
 10 11  1  0
 11 12  2  0
 11 13  1  0
 13 14  1  0
 14 15  2  0
 15 16  1  0
 16 17  2  0
 17 18  1  0
 18 19  2  0
 18 20  1  0
 20 21  1  0
 21 22  1  0
  9 23  1  0
 23 24  2  0
 24  7  1  0
 19 14  1  0
 22 17  1  0
  1 25  1  0
  1 26  1  0
  1 27  1  0
  3 28  1  0
  3 29  1  0
  3 30  1  0
  6 31  1  0
  8 32  1  0
 10 33  1  0
 13 34  1  0
 13 35  1  0
 15 36  1  0
 16 37  1  0
 19 38  1  0
 20 39  1  0
 20 40  1  0
 21 41  1  0
 21 42  1  0
 22 43  1  0
 22 44  1  0
 23 45  1  0
M  END
>  <Energy>  (420) 
59.006763047480042

>  <compound_id>  (420) 
51857

>  <target_id>  (420) 
1

>  <reference_id>  (420) 
66

>  <inspiration_ids>  (420) 
[96, 66]

>  <energy_score>  (420) 
-20.383692973009886

>  <distance_score>  (420) 
15.29865612461058

>  <path>  (420) 
/opt/xchem-fragalysis-2/maxwin/BulkDock/SCRATCH/511025/C51857-P66/C51857-P66.minimised.mol

>  <scratch_subdir>  (420) 
/opt/xchem-fragalysis-2/maxwin/BulkDock/SCRATCH/511025/C51857-P66

>  <fragmenstein_runtime>  (420) 
29.725144863128662

>  <fragmenstein_outcome>  (420) 
too moved

>  <fragmenstein_mode>  (420) 
expansion

>  <fragmenstein_error>  (420) 


$$$$
C51858-P96
     RDKit          3D

 42 43  0  0  0  0  0  0  0  0999 V2000
   -1.6047  -19.0029   22.5130 C   0  0  0  0  0  0  0  0  0  0  0  0
   -2.3380  -19.0151   23.8716 C   0  0  0  0  0  0  0  0  0  0  0  0
   -4.0102  -19.7115   24.2797 C   0  0  0  0  0  0  0  0  0  0  0  0
   -1.8638  -20.7830   23.5507 C   0  0  0  0  0  0  0  0  0  0  0  0
   -2.6510  -21.6819   23.2449 O   0  0  0  0  0  0  0  0  0  0  0  0
   -0.5746  -21.1985   23.5247 O   0  0  0  0  0  0  0  0  0  0  0  0
   -1.8057  -17.5682   25.1911 N   0  0  0  0  0  0  0  0  0  0  0  0
   -0.1196  -16.7939   25.2168 C   0  0  0  0  0  0  0  0  0  0  0  0
    0.8874  -15.7177   26.1572 C   0  0  0  0  0  0  0  0  0  0  0  0
    2.2988  -15.0837   25.0909 N   0  0  0  0  0  0  0  0  0  0  0  0
    3.3532  -13.5207   25.2282 C   0  0  0  0  0  0  0  0  0  0  0  0
    3.3378  -12.7695   26.1345 O   0  0  0  0  0  0  0  0  0  0  0  0
    4.4163  -12.7523   23.7339 C   0  0  0  0  0  0  0  0  0  0  0  0
    5.5864  -11.1874   23.6678 N   0  0  0  0  0  0  0  0  0  0  0  0
    5.4342   -9.8621   22.9721 C   0  0  0  0  0  0  0  0  0  0  0  0
    4.5104   -9.4039   22.3437 O   0  0  0  0  0  0  0  0  0  0  0  0
    6.6563   -8.9775   22.9503 C   0  0  0  0  0  0  0  0  0  0  0  0
    7.8940   -9.4390   22.4781 C   0  0  0  0  0  0  0  0  0  0  0  0
    8.9447   -8.5412   22.2193 C   0  0  0  0  0  0  0  0  0  0  0  0
    8.7740   -7.1748   22.4340 C   0  0  0  0  0  0  0  0  0  0  0  0
    7.5483   -6.7033   22.9012 C   0  0  0  0  0  0  0  0  0  0  0  0
    6.4935   -7.5948   23.1332 C   0  0  0  0  0  0  0  0  0  0  0  0
   -0.9879  -15.8221   26.1352 C   0  0  0  0  0  0  0  0  0  0  0  0
   -2.1111  -16.3268   25.5044 N   0  0  0  0  0  0  0  0  0  0  0  0
   -1.3823  -18.0597   22.0626 H   0  0  0  0  0  0  0  0  0  0  0  0
   -0.5759  -19.3594   22.5693 H   0  0  0  0  0  0  0  0  0  0  0  0
   -2.1289  -19.7071   21.8500 H   0  0  0  0  0  0  0  0  0  0  0  0
   -4.5639  -18.8368   24.5736 H   0  0  0  0  0  0  0  0  0  0  0  0
   -4.2500  -20.3264   25.1603 H   0  0  0  0  0  0  0  0  0  0  0  0
   -4.3723  -20.4180   23.5189 H   0  0  0  0  0  0  0  0  0  0  0  0
   -0.6171  -22.1451   23.2694 H   0  0  0  0  0  0  0  0  0  0  0  0
    0.3584  -17.0740   24.2659 H   0  0  0  0  0  0  0  0  0  0  0  0
    2.5600  -15.6085   24.2492 H   0  0  0  0  0  0  0  0  0  0  0  0
    3.5487  -12.1488   23.4507 H   0  0  0  0  0  0  0  0  0  0  0  0
    4.4476  -13.3461   22.8022 H   0  0  0  0  0  0  0  0  0  0  0  0
    6.5497  -11.2705   24.0344 H   0  0  0  0  0  0  0  0  0  0  0  0
    8.0430  -10.4943   22.2638 H   0  0  0  0  0  0  0  0  0  0  0  0
    9.8966   -8.9184   21.8509 H   0  0  0  0  0  0  0  0  0  0  0  0
    9.5953   -6.4859   22.2523 H   0  0  0  0  0  0  0  0  0  0  0  0
    7.4011   -5.6392   23.0721 H   0  0  0  0  0  0  0  0  0  0  0  0
    5.5235   -7.2074   23.4417 H   0  0  0  0  0  0  0  0  0  0  0  0
   -1.4757  -14.9317   26.4838 H   0  0  0  0  0  0  0  0  0  0  0  0
  1  2  1  0
  2  3  1  0
  2  4  1  0
  4  5  2  0
  4  6  1  0
  2  7  1  0
  7  8  1  0
  8  9  2  0
  9 10  1  0
 10 11  1  0
 11 12  2  0
 11 13  1  0
 13 14  1  0
 14 15  1  0
 15 16  2  0
 15 17  1  0
 17 18  2  0
 18 19  1  0
 19 20  2  0
 20 21  1  0
 21 22  2  0
  9 23  1  0
 23 24  2  0
 24  7  1  0
 22 17  1  0
  1 25  1  0
  1 26  1  0
  1 27  1  0
  3 28  1  0
  3 29  1  0
  3 30  1  0
  6 31  1  0
  8 32  1  0
 10 33  1  0
 13 34  1  0
 13 35  1  0
 14 36  1  0
 18 37  1  0
 19 38  1  0
 20 39  1  0
 21 40  1  0
 22 41  1  0
 23 42  1  0
M  END
>  <Energy>  (421) 
941.61079079205933

>  <compound_id>  (421) 
51858

>  <target_id>  (421) 
1

>  <reference_id>  (421) 
96

>  <inspiration_ids>  (421) 
[96, 66]

>  <energy_score>  (421) 
867.4306376433977

>  <distance_score>  (421) 
12.685017656686375

>  <path>  (421) 
/opt/xchem-fragalysis-2/maxwin/BulkDock/SCRATCH/511025/C51858-P96/C51858-P96.minimised.mol

>  <scratch_subdir>  (421) 
/opt/xchem-fragalysis-2/maxwin/BulkDock/SCRATCH/511025/C51858-P96

>  <fragmenstein_runtime>  (421) 
18.70805335044861

>  <fragmenstein_outcome>  (421) 
too moved

>  <fragmenstein_mode>  (421) 
expansion

>  <fragmenstein_error>  (421) 


$$$$
C51858-P66
     RDKit          3D

 42 43  0  0  0  0  0  0  0  0999 V2000
   -4.5167  -18.7635   18.3441 C   0  0  0  0  0  0  0  0  0  0  0  0
   -5.8660  -18.6606   17.6068 C   0  0  0  0  0  0  0  0  0  0  0  0
   -5.7974  -19.5257   16.3323 C   0  0  0  0  0  0  0  0  0  0  0  0
   -6.9634  -19.2325   18.5022 C   0  0  0  0  0  0  0  0  0  0  0  0
   -7.8696  -19.9712   18.1395 O   0  0  0  0  0  0  0  0  0  0  0  0
   -6.8618  -18.8762   19.8037 O   0  0  0  0  0  0  0  0  0  0  0  0
   -6.1512  -17.2654   17.2337 N   0  0  0  0  0  0  0  0  0  0  0  0
   -5.3177  -16.4363   16.5085 C   0  0  0  0  0  0  0  0  0  0  0  0
   -5.9179  -15.2007   16.4254 C   0  0  0  0  0  0  0  0  0  0  0  0
   -5.3779  -13.9985   15.9722 N   0  0  0  0  0  0  0  0  0  0  0  0
   -4.0212  -13.6659   15.5045 C   0  0  0  0  0  0  0  0  0  0  0  0
   -3.0623  -14.3657   15.3212 O   0  0  0  0  0  0  0  0  0  0  0  0
   -3.8891  -12.1195   15.2718 C   0  0  0  0  0  0  0  0  0  0  0  0
   -2.5573  -11.4928   15.1722 N   0  0  0  0  0  0  0  0  0  0  0  0
   -2.1610  -10.1052   15.1979 C   0  0  0  0  0  0  0  0  0  0  0  0
   -2.8202   -9.1048   15.2276 O   0  0  0  0  0  0  0  0  0  0  0  0
   -0.6653   -9.8184   15.1948 C   0  0  0  0  0  0  0  0  0  0  0  0
    0.2415  -10.3864   14.2900 C   0  0  0  0  0  0  0  0  0  0  0  0
    1.5964   -9.9872   14.2742 C   0  0  0  0  0  0  0  0  0  0  0  0
    2.0658   -9.0201   15.1631 C   0  0  0  0  0  0  0  0  0  0  0  0
    1.1751   -8.4417   16.0631 C   0  0  0  0  0  0  0  0  0  0  0  0
   -0.1732   -8.8257   16.0685 C   0  0  0  0  0  0  0  0  0  0  0  0
   -7.1727  -15.4205   17.0657 C   0  0  0  0  0  0  0  0  0  0  0  0
   -7.3166  -16.6572   17.5576 N   0  0  0  0  0  0  0  0  0  0  0  0
   -4.4463  -18.0238   19.1494 H   0  0  0  0  0  0  0  0  0  0  0  0
   -3.6717  -18.5884   17.6703 H   0  0  0  0  0  0  0  0  0  0  0  0
   -4.3798  -19.7563   18.7887 H   0  0  0  0  0  0  0  0  0  0  0  0
   -6.7259  -19.4549   15.7528 H   0  0  0  0  0  0  0  0  0  0  0  0
   -4.9786  -19.2152   15.6732 H   0  0  0  0  0  0  0  0  0  0  0  0
   -5.6423  -20.5828   16.5786 H   0  0  0  0  0  0  0  0  0  0  0  0
   -7.6163  -19.3271   20.2574 H   0  0  0  0  0  0  0  0  0  0  0  0
   -4.3481  -16.7727   16.1673 H   0  0  0  0  0  0  0  0  0  0  0  0
   -5.9566  -13.1689   15.9303 H   0  0  0  0  0  0  0  0  0  0  0  0
   -4.4132  -11.8791   14.3403 H   0  0  0  0  0  0  0  0  0  0  0  0
   -4.4049  -11.5973   16.0856 H   0  0  0  0  0  0  0  0  0  0  0  0
   -1.7276  -12.0758   15.2343 H   0  0  0  0  0  0  0  0  0  0  0  0
   -0.1036  -11.1193   13.5636 H   0  0  0  0  0  0  0  0  0  0  0  0
    2.2787  -10.4352   13.5543 H   0  0  0  0  0  0  0  0  0  0  0  0
    3.1105   -8.7209   15.1528 H   0  0  0  0  0  0  0  0  0  0  0  0
    1.5215   -7.6878   16.7658 H   0  0  0  0  0  0  0  0  0  0  0  0
   -0.8555   -8.3475   16.7709 H   0  0  0  0  0  0  0  0  0  0  0  0
   -7.9689  -14.7071   17.2304 H   0  0  0  0  0  0  0  0  0  0  0  0
  1  2  1  0
  2  3  1  0
  2  4  1  0
  4  5  2  0
  4  6  1  0
  2  7  1  0
  7  8  1  0
  8  9  2  0
  9 10  1  0
 10 11  1  0
 11 12  2  0
 11 13  1  0
 13 14  1  0
 14 15  1  0
 15 16  2  0
 15 17  1  0
 17 18  2  0
 18 19  1  0
 19 20  2  0
 20 21  1  0
 21 22  2  0
  9 23  1  0
 23 24  2  0
 24  7  1  0
 22 17  1  0
  1 25  1  0
  1 26  1  0
  1 27  1  0
  3 28  1  0
  3 29  1  0
  3 30  1  0
  6 31  1  0
  8 32  1  0
 10 33  1  0
 13 34  1  0
 13 35  1  0
 14 36  1  0
 18 37  1  0
 19 38  1  0
 20 39  1  0
 21 40  1  0
 22 41  1  0
 23 42  1  0
M  END
>  <Energy>  (422) 
59.323431498029485

>  <compound_id>  (422) 
51858

>  <target_id>  (422) 
1

>  <reference_id>  (422) 
66

>  <inspiration_ids>  (422) 
[96, 66]

>  <energy_score>  (422) 
-14.856721650632949

>  <distance_score>  (422) 
15.987266241812144

>  <path>  (422) 
/opt/xchem-fragalysis-2/maxwin/BulkDock/SCRATCH/511025/C51858-P66/C51858-P66.minimised.mol

>  <scratch_subdir>  (422) 
/opt/xchem-fragalysis-2/maxwin/BulkDock/SCRATCH/511025/C51858-P66

>  <fragmenstein_runtime>  (422) 
44.257323265075684

>  <fragmenstein_outcome>  (422) 
too moved

>  <fragmenstein_mode>  (422) 
expansion

>  <fragmenstein_error>  (422) 


$$$$
C51860-P96
     RDKit          3D

 42 43  0  0  0  0  0  0  0  0999 V2000
   -3.9474  -15.4600   29.8069 C   0  0  0  0  0  0  0  0  0  0  0  0
   -4.0391  -14.5100   28.4702 C   0  0  0  0  0  0  0  0  0  0  0  0
   -3.3574  -13.0968   29.1682 C   0  0  0  0  0  0  0  0  0  0  0  0
   -5.6255  -14.4028   28.8190 C   0  0  0  0  0  0  0  0  0  0  0  0
   -6.5433  -15.1225   28.4981 O   0  0  0  0  0  0  0  0  0  0  0  0
   -5.9135  -13.3470   29.6428 O   0  0  0  0  0  0  0  0  0  0  0  0
   -3.4313  -15.0707   26.8088 N   0  0  0  0  0  0  0  0  0  0  0  0
   -2.8544  -14.8773   25.1543 C   0  0  0  0  0  0  0  0  0  0  0  0
   -2.4415  -13.0917   24.9657 C   0  0  0  0  0  0  0  0  0  0  0  0
   -1.4751  -12.0040   23.7978 N   0  0  0  0  0  0  0  0  0  0  0  0
   -0.1067  -10.5875   24.1561 C   0  0  0  0  0  0  0  0  0  0  0  0
    0.2627  -10.1440   25.2308 O   0  0  0  0  0  0  0  0  0  0  0  0
    0.7696   -9.5177   22.6376 C   0  0  0  0  0  0  0  0  0  0  0  0
    0.9345   -7.7297   23.1390 C   0  0  0  0  0  0  0  0  0  0  0  0
    0.4831   -7.4508   24.4523 O   0  0  0  0  0  0  0  0  0  0  0  0
    1.9858   -9.1659   21.3438 C   0  0  0  0  0  0  0  0  0  0  0  0
    1.4040   -8.6146   20.1556 C   0  0  0  0  0  0  0  0  0  0  0  0
    2.1101   -7.8547   19.1811 C   0  0  0  0  0  0  0  0  0  0  0  0
    3.4491   -7.5403   19.3415 C   0  0  0  0  0  0  0  0  0  0  0  0
    4.0735   -7.9824   20.4867 C   0  0  0  0  0  0  0  0  0  0  0  0
    3.3602   -8.7574   21.4484 C   0  0  0  0  0  0  0  0  0  0  0  0
   -2.2663  -13.2346   26.3338 C   0  0  0  0  0  0  0  0  0  0  0  0
   -2.1256  -14.5586   26.4283 N   0  0  0  0  0  0  0  0  0  0  0  0
   -4.6471  -15.1546   30.6046 H   0  0  0  0  0  0  0  0  0  0  0  0
   -3.0185  -15.3554   30.3701 H   0  0  0  0  0  0  0  0  0  0  0  0
   -4.2161  -16.4888   29.6474 H   0  0  0  0  0  0  0  0  0  0  0  0
   -3.6148  -13.0791   30.2375 H   0  0  0  0  0  0  0  0  0  0  0  0
   -2.2739  -12.9972   29.1719 H   0  0  0  0  0  0  0  0  0  0  0  0
   -3.7515  -12.1482   28.7990 H   0  0  0  0  0  0  0  0  0  0  0  0
   -6.8697  -13.4072   29.8278 H   0  0  0  0  0  0  0  0  0  0  0  0
   -2.5616  -15.8143   24.6842 H   0  0  0  0  0  0  0  0  0  0  0  0
   -1.5012  -12.2149   22.8288 H   0  0  0  0  0  0  0  0  0  0  0  0
    0.1641   -9.6365   21.7414 H   0  0  0  0  0  0  0  0  0  0  0  0
    1.9277   -7.2794   23.0172 H   0  0  0  0  0  0  0  0  0  0  0  0
    0.4325   -7.0416   22.4312 H   0  0  0  0  0  0  0  0  0  0  0  0
    0.7373   -6.5395   24.6734 H   0  0  0  0  0  0  0  0  0  0  0  0
    0.3380   -8.7417   19.9646 H   0  0  0  0  0  0  0  0  0  0  0  0
    1.5775   -7.5041   18.2993 H   0  0  0  0  0  0  0  0  0  0  0  0
    3.9814   -6.9622   18.5937 H   0  0  0  0  0  0  0  0  0  0  0  0
    5.1231   -7.7588   20.6590 H   0  0  0  0  0  0  0  0  0  0  0  0
    4.0103   -9.0331   22.2716 H   0  0  0  0  0  0  0  0  0  0  0  0
   -1.9186  -12.6698   27.1528 H   0  0  0  0  0  0  0  0  0  0  0  0
  1  2  1  0
  2  3  1  0
  2  4  1  0
  4  5  2  0
  4  6  1  0
  2  7  1  0
  7  8  1  0
  8  9  2  0
  9 10  1  0
 10 11  1  0
 11 12  2  0
 11 13  1  0
 13 14  1  0
 14 15  1  0
 13 16  1  0
 16 17  2  0
 17 18  1  0
 18 19  2  0
 19 20  1  0
 20 21  2  0
  9 22  1  0
 22 23  2  0
 23  7  1  0
 21 16  1  0
  1 24  1  0
  1 25  1  0
  1 26  1  0
  3 27  1  0
  3 28  1  0
  3 29  1  0
  6 30  1  0
  8 31  1  0
 10 32  1  0
 13 33  1  0
 14 34  1  0
 14 35  1  0
 15 36  1  0
 17 37  1  0
 18 38  1  0
 19 39  1  0
 20 40  1  0
 21 41  1  0
 22 42  1  0
M  END
>  <Energy>  (423) 
872.87314309627129

>  <compound_id>  (423) 
51860

>  <target_id>  (423) 
1

>  <reference_id>  (423) 
96

>  <inspiration_ids>  (423) 
[96, 66]

>  <energy_score>  (423) 
768.705115594791

>  <distance_score>  (423) 
13.175103791901746

>  <path>  (423) 
/opt/xchem-fragalysis-2/maxwin/BulkDock/SCRATCH/511025/C51860-P96/C51860-P96.minimised.mol

>  <scratch_subdir>  (423) 
/opt/xchem-fragalysis-2/maxwin/BulkDock/SCRATCH/511025/C51860-P96

>  <fragmenstein_runtime>  (423) 
16.221664428710938

>  <fragmenstein_outcome>  (423) 
too moved

>  <fragmenstein_mode>  (423) 
expansion

>  <fragmenstein_error>  (423) 


$$$$
C51860-P66
     RDKit          3D

 42 43  0  0  0  0  0  0  0  0999 V2000
    1.0908  -21.0005   22.2285 C   0  0  0  0  0  0  0  0  0  0  0  0
    1.8022  -19.5880   21.4588 C   0  0  0  0  0  0  0  0  0  0  0  0
    2.5774  -20.1845   20.0604 C   0  0  0  0  0  0  0  0  0  0  0  0
    3.2122  -19.8264   22.4493 C   0  0  0  0  0  0  0  0  0  0  0  0
    4.3885  -19.7266   22.0995 O   0  0  0  0  0  0  0  0  0  0  0  0
    3.0470  -20.2655   23.7297 O   0  0  0  0  0  0  0  0  0  0  0  0
    0.4334  -18.1851   21.4626 N   0  0  0  0  0  0  0  0  0  0  0  0
    0.2831  -16.4817   21.3348 C   0  0  0  0  0  0  0  0  0  0  0  0
    1.0401  -15.9973   20.3524 C   0  0  0  0  0  0  0  0  0  0  0  0
    2.3054  -14.9114   19.9816 N   0  0  0  0  0  0  0  0  0  0  0  0
    2.9950  -14.5129   18.5135 C   0  0  0  0  0  0  0  0  0  0  0  0
    2.6884  -14.8512   17.3832 O   0  0  0  0  0  0  0  0  0  0  0  0
    4.4138  -13.5637   18.5645 C   0  0  0  0  0  0  0  0  0  0  0  0
    5.5703  -14.4772   18.0789 C   0  0  0  0  0  0  0  0  0  0  0  0
    6.8341  -14.0316   18.5822 O   0  0  0  0  0  0  0  0  0  0  0  0
    4.5472  -12.2179   17.7690 C   0  0  0  0  0  0  0  0  0  0  0  0
    4.3177  -12.0928   16.3951 C   0  0  0  0  0  0  0  0  0  0  0  0
    4.5537  -10.8756   15.7317 C   0  0  0  0  0  0  0  0  0  0  0  0
    5.0001   -9.7538   16.4283 C   0  0  0  0  0  0  0  0  0  0  0  0
    5.2563   -9.8550   17.7887 C   0  0  0  0  0  0  0  0  0  0  0  0
    5.0831  -11.0832   18.4324 C   0  0  0  0  0  0  0  0  0  0  0  0
    0.4045  -17.0335   19.8359 C   0  0  0  0  0  0  0  0  0  0  0  0
   -0.5434  -17.7610   20.4805 N   0  0  0  0  0  0  0  0  0  0  0  0
    1.8633  -21.7415   22.4699 H   0  0  0  0  0  0  0  0  0  0  0  0
    0.5742  -20.6990   23.1412 H   0  0  0  0  0  0  0  0  0  0  0  0
    0.3992  -21.5904   21.6169 H   0  0  0  0  0  0  0  0  0  0  0  0
    3.6581  -20.0218   20.0785 H   0  0  0  0  0  0  0  0  0  0  0  0
    2.2854  -19.7816   19.0844 H   0  0  0  0  0  0  0  0  0  0  0  0
    2.4570  -21.2764   20.0304 H   0  0  0  0  0  0  0  0  0  0  0  0
    3.9608  -20.3775   24.0595 H   0  0  0  0  0  0  0  0  0  0  0  0
   -0.3628  -15.9722   21.9691 H   0  0  0  0  0  0  0  0  0  0  0  0
    2.7597  -14.3868   20.7299 H   0  0  0  0  0  0  0  0  0  0  0  0
    4.5938  -13.2248   19.5896 H   0  0  0  0  0  0  0  0  0  0  0  0
    5.4438  -15.5121   18.4113 H   0  0  0  0  0  0  0  0  0  0  0  0
    5.6338  -14.5199   16.9855 H   0  0  0  0  0  0  0  0  0  0  0  0
    7.0464  -13.2081   18.1047 H   0  0  0  0  0  0  0  0  0  0  0  0
    3.9636  -12.9453   15.8168 H   0  0  0  0  0  0  0  0  0  0  0  0
    4.3707  -10.8044   14.6616 H   0  0  0  0  0  0  0  0  0  0  0  0
    5.1462   -8.8150   15.9015 H   0  0  0  0  0  0  0  0  0  0  0  0
    5.5850   -8.9917   18.3586 H   0  0  0  0  0  0  0  0  0  0  0  0
    5.3705  -11.1474   19.4802 H   0  0  0  0  0  0  0  0  0  0  0  0
    0.8942  -17.5107   18.9260 H   0  0  0  0  0  0  0  0  0  0  0  0
  1  2  1  0
  2  3  1  0
  2  4  1  0
  4  5  2  0
  4  6  1  0
  2  7  1  0
  7  8  1  0
  8  9  2  0
  9 10  1  0
 10 11  1  0
 11 12  2  0
 11 13  1  0
 13 14  1  0
 14 15  1  0
 13 16  1  0
 16 17  2  0
 17 18  1  0
 18 19  2  0
 19 20  1  0
 20 21  2  0
  9 22  1  0
 22 23  2  0
 23  7  1  0
 21 16  1  0
  1 24  1  0
  1 25  1  0
  1 26  1  0
  3 27  1  0
  3 28  1  0
  3 29  1  0
  6 30  1  0
  8 31  1  0
 10 32  1  0
 13 33  1  0
 14 34  1  0
 14 35  1  0
 15 36  1  0
 17 37  1  0
 18 38  1  0
 19 39  1  0
 20 40  1  0
 21 41  1  0
 22 42  1  0
M  END
>  <Energy>  (424) 
501.96608031448989

>  <compound_id>  (424) 
51860

>  <target_id>  (424) 
1

>  <reference_id>  (424) 
66

>  <inspiration_ids>  (424) 
[96, 66]

>  <energy_score>  (424) 
397.7980528129803

>  <distance_score>  (424) 
14.39102001121941

>  <path>  (424) 
/opt/xchem-fragalysis-2/maxwin/BulkDock/SCRATCH/511025/C51860-P66/C51860-P66.minimised.mol

>  <scratch_subdir>  (424) 
/opt/xchem-fragalysis-2/maxwin/BulkDock/SCRATCH/511025/C51860-P66

>  <fragmenstein_runtime>  (424) 
32.49548411369324

>  <fragmenstein_outcome>  (424) 
too moved

>  <fragmenstein_mode>  (424) 
expansion

>  <fragmenstein_error>  (424) 


$$$$
C51861-P96
     RDKit          3D

 44 45  0  0  0  0  0  0  0  0999 V2000
   -9.9702  -23.3371   25.7487 C   0  0  0  0  0  0  0  0  0  0  0  0
   -8.6381  -23.0519   26.7277 C   0  0  0  0  0  0  0  0  0  0  0  0
   -8.6987  -22.1462   28.0643 C   0  0  0  0  0  0  0  0  0  0  0  0
   -9.1054  -24.3549   27.8032 C   0  0  0  0  0  0  0  0  0  0  0  0
   -8.4149  -25.1544   28.4176 O   0  0  0  0  0  0  0  0  0  0  0  0
  -10.4448  -24.4006   28.0406 O   0  0  0  0  0  0  0  0  0  0  0  0
   -7.0934  -22.7198   25.5692 N   0  0  0  0  0  0  0  0  0  0  0  0
   -5.6265  -22.2530   25.6639 C   0  0  0  0  0  0  0  0  0  0  0  0
   -4.9090  -22.6223   24.4889 C   0  0  0  0  0  0  0  0  0  0  0  0
   -3.4808  -22.6811   24.3181 N   0  0  0  0  0  0  0  0  0  0  0  0
   -2.6292  -22.5328   23.0880 C   0  0  0  0  0  0  0  0  0  0  0  0
   -2.9403  -22.4075   21.9315 O   0  0  0  0  0  0  0  0  0  0  0  0
   -0.9761  -22.5782   23.4311 C   0  0  0  0  0  0  0  0  0  0  0  0
    0.0578  -21.6941   22.5173 C   0  0  0  0  0  0  0  0  0  0  0  0
    1.6957  -21.6754   22.7137 C   0  0  0  0  0  0  0  0  0  0  0  0
    2.7368  -20.7065   22.0419 C   0  0  0  0  0  0  0  0  0  0  0  0
    2.8673  -20.6352   20.6618 C   0  0  0  0  0  0  0  0  0  0  0  0
    3.9073  -19.8998   20.0709 C   0  0  0  0  0  0  0  0  0  0  0  0
    4.8073  -19.1322   20.8154 C   0  0  0  0  0  0  0  0  0  0  0  0
    4.7203  -19.1793   22.1902 C   0  0  0  0  0  0  0  0  0  0  0  0
    3.7413  -20.0069   22.7798 C   0  0  0  0  0  0  0  0  0  0  0  0
   -5.9797  -22.8988   23.6112 C   0  0  0  0  0  0  0  0  0  0  0  0
   -7.2207  -22.9150   24.1649 N   0  0  0  0  0  0  0  0  0  0  0  0
  -10.2319  -24.4017   25.7042 H   0  0  0  0  0  0  0  0  0  0  0  0
  -10.8474  -22.8163   26.1525 H   0  0  0  0  0  0  0  0  0  0  0  0
   -9.8389  -23.0638   24.6982 H   0  0  0  0  0  0  0  0  0  0  0  0
   -9.6812  -21.6643   28.1872 H   0  0  0  0  0  0  0  0  0  0  0  0
   -7.8627  -21.4402   28.0683 H   0  0  0  0  0  0  0  0  0  0  0  0
   -8.5734  -22.7093   28.9988 H   0  0  0  0  0  0  0  0  0  0  0  0
  -10.5502  -25.1370   28.6774 H   0  0  0  0  0  0  0  0  0  0  0  0
   -5.3325  -21.7860   26.5945 H   0  0  0  0  0  0  0  0  0  0  0  0
   -2.8870  -22.8464   25.1150 H   0  0  0  0  0  0  0  0  0  0  0  0
   -0.6928  -23.6314   23.3127 H   0  0  0  0  0  0  0  0  0  0  0  0
   -0.8289  -22.3261   24.4809 H   0  0  0  0  0  0  0  0  0  0  0  0
   -0.2901  -20.6642   22.6041 H   0  0  0  0  0  0  0  0  0  0  0  0
   -0.1009  -22.0528   21.4967 H   0  0  0  0  0  0  0  0  0  0  0  0
    2.0193  -22.6796   22.4007 H   0  0  0  0  0  0  0  0  0  0  0  0
    1.8783  -21.6816   23.7913 H   0  0  0  0  0  0  0  0  0  0  0  0
    2.2025  -21.2099   20.0209 H   0  0  0  0  0  0  0  0  0  0  0  0
    3.9947  -19.9631   18.9926 H   0  0  0  0  0  0  0  0  0  0  0  0
    5.5728  -18.5470   20.3188 H   0  0  0  0  0  0  0  0  0  0  0  0
    5.4275  -18.6398   22.8110 H   0  0  0  0  0  0  0  0  0  0  0  0
    3.7837  -20.1192   23.8608 H   0  0  0  0  0  0  0  0  0  0  0  0
   -5.9053  -23.1185   22.5529 H   0  0  0  0  0  0  0  0  0  0  0  0
  1  2  1  0
  2  3  1  0
  2  4  1  0
  4  5  2  0
  4  6  1  0
  2  7  1  0
  7  8  1  0
  8  9  2  0
  9 10  1  0
 10 11  1  0
 11 12  2  0
 11 13  1  0
 13 14  1  0
 14 15  1  0
 15 16  1  0
 16 17  2  0
 17 18  1  0
 18 19  2  0
 19 20  1  0
 20 21  2  0
  9 22  1  0
 22 23  2  0
 23  7  1  0
 21 16  1  0
  1 24  1  0
  1 25  1  0
  1 26  1  0
  3 27  1  0
  3 28  1  0
  3 29  1  0
  6 30  1  0
  8 31  1  0
 10 32  1  0
 13 33  1  0
 13 34  1  0
 14 35  1  0
 14 36  1  0
 15 37  1  0
 15 38  1  0
 17 39  1  0
 18 40  1  0
 19 41  1  0
 20 42  1  0
 21 43  1  0
 22 44  1  0
M  END
>  <Energy>  (425) 
243.32738440490695

>  <compound_id>  (425) 
51861

>  <target_id>  (425) 
1

>  <reference_id>  (425) 
96

>  <inspiration_ids>  (425) 
[96, 66]

>  <energy_score>  (425) 
194.31821013930153

>  <distance_score>  (425) 
16.400160659357194

>  <path>  (425) 
/opt/xchem-fragalysis-2/maxwin/BulkDock/SCRATCH/511025/C51861-P96/C51861-P96.minimised.mol

>  <scratch_subdir>  (425) 
/opt/xchem-fragalysis-2/maxwin/BulkDock/SCRATCH/511025/C51861-P96

>  <fragmenstein_runtime>  (425) 
34.47578239440918

>  <fragmenstein_outcome>  (425) 
too moved

>  <fragmenstein_mode>  (425) 
expansion

>  <fragmenstein_error>  (425) 


$$$$
C51861-P66
     RDKit          3D

 44 45  0  0  0  0  0  0  0  0999 V2000
   -4.5909  -19.6421   27.4252 C   0  0  0  0  0  0  0  0  0  0  0  0
   -6.2082  -19.5416   26.3939 C   0  0  0  0  0  0  0  0  0  0  0  0
   -7.9033  -18.7083   27.6570 C   0  0  0  0  0  0  0  0  0  0  0  0
   -4.9508  -20.9790   26.0320 C   0  0  0  0  0  0  0  0  0  0  0  0
   -4.8455  -22.0712   26.6003 O   0  0  0  0  0  0  0  0  0  0  0  0
   -4.1570  -20.7575   24.9458 O   0  0  0  0  0  0  0  0  0  0  0  0
   -6.1045  -18.7792   24.5200 N   0  0  0  0  0  0  0  0  0  0  0  0
   -6.5662  -17.2723   23.6611 C   0  0  0  0  0  0  0  0  0  0  0  0
   -5.4959  -15.7920   23.8709 C   0  0  0  0  0  0  0  0  0  0  0  0
   -3.7063  -15.5710   23.6333 N   0  0  0  0  0  0  0  0  0  0  0  0
   -2.4632  -15.0729   24.7082 C   0  0  0  0  0  0  0  0  0  0  0  0
   -2.4905  -14.8363   25.8939 O   0  0  0  0  0  0  0  0  0  0  0  0
   -0.8675  -14.6636   24.0431 C   0  0  0  0  0  0  0  0  0  0  0  0
    0.8807  -14.0661   24.0858 C   0  0  0  0  0  0  0  0  0  0  0  0
    2.5638  -13.0933   23.8222 C   0  0  0  0  0  0  0  0  0  0  0  0
    4.0887  -13.2950   23.2353 C   0  0  0  0  0  0  0  0  0  0  0  0
    4.5016  -12.8547   21.9763 C   0  0  0  0  0  0  0  0  0  0  0  0
    5.8299  -12.5364   21.6027 C   0  0  0  0  0  0  0  0  0  0  0  0
    6.8529  -12.6776   22.5151 C   0  0  0  0  0  0  0  0  0  0  0  0
    6.5328  -13.2089   23.7558 C   0  0  0  0  0  0  0  0  0  0  0  0
    5.1902  -13.5330   24.0933 C   0  0  0  0  0  0  0  0  0  0  0  0
   -5.8037  -17.6329   22.8544 C   0  0  0  0  0  0  0  0  0  0  0  0
   -6.3482  -19.0054   23.2098 N   0  0  0  0  0  0  0  0  0  0  0  0
   -4.4974  -20.6007   27.9685 H   0  0  0  0  0  0  0  0  0  0  0  0
   -3.5578  -19.8073   26.9977 H   0  0  0  0  0  0  0  0  0  0  0  0
   -4.4470  -18.7088   28.0151 H   0  0  0  0  0  0  0  0  0  0  0  0
   -7.6386  -17.7128   28.2179 H   0  0  0  0  0  0  0  0  0  0  0  0
   -8.7268  -18.0792   27.2159 H   0  0  0  0  0  0  0  0  0  0  0  0
   -8.3432  -19.3877   28.3406 H   0  0  0  0  0  0  0  0  0  0  0  0
   -3.6538  -21.5953   24.8436 H   0  0  0  0  0  0  0  0  0  0  0  0
   -7.5464  -17.1670   22.9241 H   0  0  0  0  0  0  0  0  0  0  0  0
   -3.3375  -15.7596   22.7624 H   0  0  0  0  0  0  0  0  0  0  0  0
   -1.0335  -13.8415   24.7158 H   0  0  0  0  0  0  0  0  0  0  0  0
   -0.9897  -14.7056   22.9769 H   0  0  0  0  0  0  0  0  0  0  0  0
    0.9300  -13.7968   25.1925 H   0  0  0  0  0  0  0  0  0  0  0  0
    1.4143  -14.7692   23.4804 H   0  0  0  0  0  0  0  0  0  0  0  0
    2.3001  -12.0478   23.7476 H   0  0  0  0  0  0  0  0  0  0  0  0
    2.9090  -13.3414   24.7889 H   0  0  0  0  0  0  0  0  0  0  0  0
    3.7875  -12.8587   21.1807 H   0  0  0  0  0  0  0  0  0  0  0  0
    6.0322  -12.2206   20.5814 H   0  0  0  0  0  0  0  0  0  0  0  0
    7.8777  -12.4430   22.2495 H   0  0  0  0  0  0  0  0  0  0  0  0
    7.3181  -13.3811   24.4883 H   0  0  0  0  0  0  0  0  0  0  0  0
    5.0183  -13.9211   25.0965 H   0  0  0  0  0  0  0  0  0  0  0  0
   -5.5575  -17.6371   21.7611 H   0  0  0  0  0  0  0  0  0  0  0  0
  1  2  1  0
  2  3  1  0
  2  4  1  0
  4  5  2  0
  4  6  1  0
  2  7  1  0
  7  8  1  0
  8  9  2  0
  9 10  1  0
 10 11  1  0
 11 12  2  0
 11 13  1  0
 13 14  1  0
 14 15  1  0
 15 16  1  0
 16 17  2  0
 17 18  1  0
 18 19  2  0
 19 20  1  0
 20 21  2  0
  9 22  1  0
 22 23  2  0
 23  7  1  0
 21 16  1  0
  1 24  1  0
  1 25  1  0
  1 26  1  0
  3 27  1  0
  3 28  1  0
  3 29  1  0
  6 30  1  0
  8 31  1  0
 10 32  1  0
 13 33  1  0
 13 34  1  0
 14 35  1  0
 14 36  1  0
 15 37  1  0
 15 38  1  0
 17 39  1  0
 18 40  1  0
 19 41  1  0
 20 42  1  0
 21 43  1  0
 22 44  1  0
M  END
>  <Energy>  (426) 
1393.5855602398365

>  <compound_id>  (426) 
51861

>  <target_id>  (426) 
1

>  <reference_id>  (426) 
66

>  <inspiration_ids>  (426) 
[96, 66]

>  <energy_score>  (426) 
1344.5763859742417

>  <distance_score>  (426) 
13.285029558078774

>  <path>  (426) 
/opt/xchem-fragalysis-2/maxwin/BulkDock/SCRATCH/511025/C51861-P66/C51861-P66.minimised.mol

>  <scratch_subdir>  (426) 
/opt/xchem-fragalysis-2/maxwin/BulkDock/SCRATCH/511025/C51861-P66

>  <fragmenstein_runtime>  (426) 
36.0205774307251

>  <fragmenstein_outcome>  (426) 
too moved

>  <fragmenstein_mode>  (426) 
expansion

>  <fragmenstein_error>  (426) 


$$$$
C51862-P96
     RDKit          3D

 44 45  0  0  0  0  0  0  0  0999 V2000
    1.1593  -11.2073   22.4280 C   0  0  0  0  0  0  0  0  0  0  0  0
    0.1825  -11.7901   24.0403 C   0  0  0  0  0  0  0  0  0  0  0  0
   -1.8856  -12.6819   24.4319 C   0  0  0  0  0  0  0  0  0  0  0  0
   -2.6676  -13.8410   26.0861 C   0  0  0  0  0  0  0  0  0  0  0  0
   -2.6230  -13.1798   27.1204 O   0  0  0  0  0  0  0  0  0  0  0  0
   -3.4738  -15.5731   25.7346 N   0  0  0  0  0  0  0  0  0  0  0  0
   -4.6957  -16.8894   26.8259 C   0  0  0  0  0  0  0  0  0  0  0  0
   -5.0188  -18.7327   26.1522 C   0  0  0  0  0  0  0  0  0  0  0  0
   -5.4020  -20.0538   27.2272 N   0  0  0  0  0  0  0  0  0  0  0  0
   -7.0285  -19.6321   27.4749 N   0  0  0  0  0  0  0  0  0  0  0  0
   -8.6561  -20.6527   28.1694 C   0  0  0  0  0  0  0  0  0  0  0  0
  -10.3902  -21.1914   27.4997 C   0  0  0  0  0  0  0  0  0  0  0  0
   -8.1810  -22.0259   28.2359 C   0  0  0  0  0  0  0  0  0  0  0  0
   -9.9508  -20.4022   29.4012 C   0  0  0  0  0  0  0  0  0  0  0  0
  -10.4647  -21.3697   30.0103 O   0  0  0  0  0  0  0  0  0  0  0  0
  -10.4312  -19.2586   29.7800 O   0  0  0  0  0  0  0  0  0  0  0  0
   -5.9511  -18.3379   26.5253 C   0  0  0  0  0  0  0  0  0  0  0  0
    2.1486  -11.8644   24.5076 C   0  0  0  0  0  0  0  0  0  0  0  0
    3.1174  -11.8919   25.4246 C   0  0  0  0  0  0  0  0  0  0  0  0
    4.3137  -10.6575   25.6869 C   0  0  0  0  0  0  0  0  0  0  0  0
    5.1537  -10.0805   24.7705 C   0  0  0  0  0  0  0  0  0  0  0  0
    4.8547  -10.8340   23.7002 C   0  0  0  0  0  0  0  0  0  0  0  0
    3.4871  -11.9497   23.6098 C   0  0  0  0  0  0  0  0  0  0  0  0
    1.5116  -12.0966   21.8918 H   0  0  0  0  0  0  0  0  0  0  0  0
    0.7449  -10.4521   21.7653 H   0  0  0  0  0  0  0  0  0  0  0  0
    2.1538  -10.8610   22.3155 H   0  0  0  0  0  0  0  0  0  0  0  0
   -0.0234  -12.5456   23.1755 H   0  0  0  0  0  0  0  0  0  0  0  0
   -2.0637  -13.3111   23.5287 H   0  0  0  0  0  0  0  0  0  0  0  0
   -2.6467  -11.9282   24.1729 H   0  0  0  0  0  0  0  0  0  0  0  0
   -3.2545  -15.8716   24.7989 H   0  0  0  0  0  0  0  0  0  0  0  0
   -4.4521  -19.0888   25.2667 H   0  0  0  0  0  0  0  0  0  0  0  0
  -10.8378  -20.4502   26.8701 H   0  0  0  0  0  0  0  0  0  0  0  0
  -11.2148  -21.4494   28.1765 H   0  0  0  0  0  0  0  0  0  0  0  0
  -10.3510  -22.1683   26.9847 H   0  0  0  0  0  0  0  0  0  0  0  0
   -8.3569  -22.6206   29.1384 H   0  0  0  0  0  0  0  0  0  0  0  0
   -7.1553  -21.7786   27.9747 H   0  0  0  0  0  0  0  0  0  0  0  0
   -8.6334  -22.6716   27.4760 H   0  0  0  0  0  0  0  0  0  0  0  0
  -10.1206  -18.4461   29.3203 H   0  0  0  0  0  0  0  0  0  0  0  0
   -6.7520  -18.3834   25.8623 H   0  0  0  0  0  0  0  0  0  0  0  0
    3.2240  -12.7704   26.0506 H   0  0  0  0  0  0  0  0  0  0  0  0
    4.4332  -10.2726   26.7050 H   0  0  0  0  0  0  0  0  0  0  0  0
    5.8940   -9.3180   24.8948 H   0  0  0  0  0  0  0  0  0  0  0  0
    5.4557  -10.4841   22.8513 H   0  0  0  0  0  0  0  0  0  0  0  0
    3.4138  -12.5804   22.7181 H   0  0  0  0  0  0  0  0  0  0  0  0
  1  2  1  0
  2  3  1  0
  3  4  1  0
  4  5  2  0
  4  6  1  0
  6  7  1  0
  7  8  1  0
  8  9  2  0
  9 10  1  0
 10 11  1  0
 11 12  1  0
 11 13  1  0
 11 14  1  0
 14 15  2  0
 14 16  1  0
 10 17  1  0
  2 18  1  0
 18 19  2  0
 19 20  1  0
 20 21  2  0
 21 22  1  0
 22 23  2  0
 17  7  2  0
 23 18  1  0
  1 24  1  0
  1 25  1  0
  1 26  1  0
  2 27  1  0
  3 28  1  0
  3 29  1  0
  6 30  1  0
  8 31  1  0
 12 32  1  0
 12 33  1  0
 12 34  1  0
 13 35  1  0
 13 36  1  0
 13 37  1  0
 16 38  1  0
 17 39  1  0
 19 40  1  0
 20 41  1  0
 21 42  1  0
 22 43  1  0
 23 44  1  0
M  END
>  <Energy>  (427) 
2063.4691127425713

>  <compound_id>  (427) 
51862

>  <target_id>  (427) 
1

>  <reference_id>  (427) 
96

>  <inspiration_ids>  (427) 
[96, 66]

>  <energy_score>  (427) 
2000.6038279724007

>  <distance_score>  (427) 
12.960502275337578

>  <path>  (427) 
/opt/xchem-fragalysis-2/maxwin/BulkDock/SCRATCH/511025/C51862-P96/C51862-P96.minimised.mol

>  <scratch_subdir>  (427) 
/opt/xchem-fragalysis-2/maxwin/BulkDock/SCRATCH/511025/C51862-P96

>  <fragmenstein_runtime>  (427) 
20.624131441116333

>  <fragmenstein_outcome>  (427) 
too moved

>  <fragmenstein_mode>  (427) 
expansion

>  <fragmenstein_error>  (427) 


$$$$
C51862-P66
     RDKit          3D

 44 45  0  0  0  0  0  0  0  0999 V2000
    2.6068   -9.0437   21.9006 C   0  0  0  0  0  0  0  0  0  0  0  0
    3.2734  -10.6638   22.7742 C   0  0  0  0  0  0  0  0  0  0  0  0
    2.0170  -12.1128   23.7496 C   0  0  0  0  0  0  0  0  0  0  0  0
    0.8245  -13.8947   23.9722 C   0  0  0  0  0  0  0  0  0  0  0  0
    1.4004  -14.8151   23.4307 O   0  0  0  0  0  0  0  0  0  0  0  0
   -0.9033  -13.8517   24.8747 N   0  0  0  0  0  0  0  0  0  0  0  0
   -2.0915  -15.1271   25.2962 C   0  0  0  0  0  0  0  0  0  0  0  0
   -2.1321  -15.3490   27.1404 C   0  0  0  0  0  0  0  0  0  0  0  0
   -2.5187  -16.5111   27.6870 N   0  0  0  0  0  0  0  0  0  0  0  0
   -2.3501  -17.4595   26.8006 N   0  0  0  0  0  0  0  0  0  0  0  0
   -2.2607  -19.0317   27.2522 C   0  0  0  0  0  0  0  0  0  0  0  0
   -0.8757  -19.3099   27.9959 C   0  0  0  0  0  0  0  0  0  0  0  0
   -3.3634  -19.2176   28.2583 C   0  0  0  0  0  0  0  0  0  0  0  0
   -2.6345  -20.4284   26.5255 C   0  0  0  0  0  0  0  0  0  0  0  0
   -2.1120  -21.4771   26.9221 O   0  0  0  0  0  0  0  0  0  0  0  0
   -3.5664  -20.5415   25.5715 O   0  0  0  0  0  0  0  0  0  0  0  0
   -2.6171  -16.5808   25.3822 C   0  0  0  0  0  0  0  0  0  0  0  0
    4.9471   -9.6862   22.8608 C   0  0  0  0  0  0  0  0  0  0  0  0
    6.2178  -10.2651   23.1159 C   0  0  0  0  0  0  0  0  0  0  0  0
    7.4651   -9.6277   22.8635 C   0  0  0  0  0  0  0  0  0  0  0  0
    7.5367   -8.3246   22.4063 C   0  0  0  0  0  0  0  0  0  0  0  0
    6.3525   -7.6346   22.2811 C   0  0  0  0  0  0  0  0  0  0  0  0
    5.1140   -8.2856   22.5242 C   0  0  0  0  0  0  0  0  0  0  0  0
    3.2266   -8.5101   21.1729 H   0  0  0  0  0  0  0  0  0  0  0  0
    2.4256   -8.2351   22.6348 H   0  0  0  0  0  0  0  0  0  0  0  0
    1.6442   -9.2062   21.3741 H   0  0  0  0  0  0  0  0  0  0  0  0
    4.0340  -11.3617   22.3731 H   0  0  0  0  0  0  0  0  0  0  0  0
    1.8383  -11.7676   24.7337 H   0  0  0  0  0  0  0  0  0  0  0  0
    2.9092  -12.7652   23.8304 H   0  0  0  0  0  0  0  0  0  0  0  0
   -1.0721  -12.9786   25.2902 H   0  0  0  0  0  0  0  0  0  0  0  0
   -1.7865  -14.7289   27.9291 H   0  0  0  0  0  0  0  0  0  0  0  0
   -0.9980  -19.4574   29.0725 H   0  0  0  0  0  0  0  0  0  0  0  0
   -0.3855  -20.2720   27.7936 H   0  0  0  0  0  0  0  0  0  0  0  0
   -0.1308  -18.5471   27.7455 H   0  0  0  0  0  0  0  0  0  0  0  0
   -3.0069  -19.6919   29.1835 H   0  0  0  0  0  0  0  0  0  0  0  0
   -3.9572  -18.3215   28.4752 H   0  0  0  0  0  0  0  0  0  0  0  0
   -4.1004  -19.9019   27.8244 H   0  0  0  0  0  0  0  0  0  0  0  0
   -4.1134  -19.7327   25.5702 H   0  0  0  0  0  0  0  0  0  0  0  0
   -2.2857  -17.4890   25.0501 H   0  0  0  0  0  0  0  0  0  0  0  0
    6.3311  -11.2091   23.6261 H   0  0  0  0  0  0  0  0  0  0  0  0
    8.3854  -10.1726   23.0689 H   0  0  0  0  0  0  0  0  0  0  0  0
    8.4932   -7.8451   22.2274 H   0  0  0  0  0  0  0  0  0  0  0  0
    6.3574   -6.5826   22.0080 H   0  0  0  0  0  0  0  0  0  0  0  0
    4.2859   -7.5873   22.4592 H   0  0  0  0  0  0  0  0  0  0  0  0
  1  2  1  0
  2  3  1  0
  3  4  1  0
  4  5  2  0
  4  6  1  0
  6  7  1  0
  7  8  1  0
  8  9  2  0
  9 10  1  0
 10 11  1  0
 11 12  1  0
 11 13  1  0
 11 14  1  0
 14 15  2  0
 14 16  1  0
 10 17  1  0
  2 18  1  0
 18 19  2  0
 19 20  1  0
 20 21  2  0
 21 22  1  0
 22 23  2  0
 17  7  2  0
 23 18  1  0
  1 24  1  0
  1 25  1  0
  1 26  1  0
  2 27  1  0
  3 28  1  0
  3 29  1  0
  6 30  1  0
  8 31  1  0
 12 32  1  0
 12 33  1  0
 12 34  1  0
 13 35  1  0
 13 36  1  0
 13 37  1  0
 16 38  1  0
 17 39  1  0
 19 40  1  0
 20 41  1  0
 21 42  1  0
 22 43  1  0
 23 44  1  0
M  END
>  <Energy>  (428) 
838.49945407176574

>  <compound_id>  (428) 
51862

>  <target_id>  (428) 
1

>  <reference_id>  (428) 
66

>  <inspiration_ids>  (428) 
[96, 66]

>  <energy_score>  (428) 
775.6341693016051

>  <distance_score>  (428) 
12.164429210143313

>  <path>  (428) 
/opt/xchem-fragalysis-2/maxwin/BulkDock/SCRATCH/511025/C51862-P66/C51862-P66.minimised.mol

>  <scratch_subdir>  (428) 
/opt/xchem-fragalysis-2/maxwin/BulkDock/SCRATCH/511025/C51862-P66

>  <fragmenstein_runtime>  (428) 
31.146464824676514

>  <fragmenstein_outcome>  (428) 
too moved

>  <fragmenstein_mode>  (428) 
expansion

>  <fragmenstein_error>  (428) 


$$$$
C51863-P96
     RDKit          3D

 42 43  0  0  0  0  0  0  0  0999 V2000
   -6.7721  -13.8070   18.5853 C   0  0  0  0  0  0  0  0  0  0  0  0
   -5.5175  -13.8535   19.4708 C   0  0  0  0  0  0  0  0  0  0  0  0
   -4.2224  -13.6635   18.5453 C   0  0  0  0  0  0  0  0  0  0  0  0
   -3.8058  -12.1583   18.1392 C   0  0  0  0  0  0  0  0  0  0  0  0
   -4.3903  -11.2387   18.6481 O   0  0  0  0  0  0  0  0  0  0  0  0
   -2.6443  -12.1725   17.2243 N   0  0  0  0  0  0  0  0  0  0  0  0
   -1.8203  -11.1200   16.7529 C   0  0  0  0  0  0  0  0  0  0  0  0
   -0.6771  -11.2529   15.9024 C   0  0  0  0  0  0  0  0  0  0  0  0
    0.0527  -10.1383   15.7774 N   0  0  0  0  0  0  0  0  0  0  0  0
   -0.6074   -9.2247   16.5343 N   0  0  0  0  0  0  0  0  0  0  0  0
   -0.0844   -7.8381   16.5707 C   0  0  0  0  0  0  0  0  0  0  0  0
   -0.1621   -7.2336   15.1510 C   0  0  0  0  0  0  0  0  0  0  0  0
    1.4135   -7.7785   17.0281 C   0  0  0  0  0  0  0  0  0  0  0  0
   -0.8965   -6.9369   17.4971 C   0  0  0  0  0  0  0  0  0  0  0  0
   -0.5089   -6.3814   18.5139 O   0  0  0  0  0  0  0  0  0  0  0  0
   -2.1649   -6.7101   17.0864 O   0  0  0  0  0  0  0  0  0  0  0  0
   -1.7593   -9.7754   17.0937 C   0  0  0  0  0  0  0  0  0  0  0  0
   -5.5966  -15.0196   20.3832 N   0  0  0  0  0  0  0  0  0  0  0  0
   -5.8601  -14.9341   21.7399 C   0  0  0  0  0  0  0  0  0  0  0  0
   -6.0555  -16.2032   22.2376 C   0  0  0  0  0  0  0  0  0  0  0  0
   -5.9154  -17.1040   21.1596 C   0  0  0  0  0  0  0  0  0  0  0  0
   -5.6370  -16.3516   20.0340 C   0  0  0  0  0  0  0  0  0  0  0  0
   -6.7974  -14.6473   17.8829 H   0  0  0  0  0  0  0  0  0  0  0  0
   -6.8038  -12.8798   18.0036 H   0  0  0  0  0  0  0  0  0  0  0  0
   -7.6837  -13.8530   19.1917 H   0  0  0  0  0  0  0  0  0  0  0  0
   -5.5930  -12.9844   20.1302 H   0  0  0  0  0  0  0  0  0  0  0  0
   -4.3483  -14.2377   17.6196 H   0  0  0  0  0  0  0  0  0  0  0  0
   -3.3545  -14.0724   19.0692 H   0  0  0  0  0  0  0  0  0  0  0  0
   -2.3631  -13.1329   17.0584 H   0  0  0  0  0  0  0  0  0  0  0  0
   -0.3275  -12.1490   15.4059 H   0  0  0  0  0  0  0  0  0  0  0  0
    0.1083   -6.1711   15.1577 H   0  0  0  0  0  0  0  0  0  0  0  0
   -1.1732   -7.3128   14.7339 H   0  0  0  0  0  0  0  0  0  0  0  0
    0.5149   -7.7451   14.4570 H   0  0  0  0  0  0  0  0  0  0  0  0
    1.5275   -8.2217   18.0242 H   0  0  0  0  0  0  0  0  0  0  0  0
    2.0631   -8.3330   16.3421 H   0  0  0  0  0  0  0  0  0  0  0  0
    1.7732   -6.7445   17.0757 H   0  0  0  0  0  0  0  0  0  0  0  0
   -2.5339   -6.1136   17.7726 H   0  0  0  0  0  0  0  0  0  0  0  0
   -2.3985   -9.1948   17.7430 H   0  0  0  0  0  0  0  0  0  0  0  0
   -5.8963  -13.9714   22.2320 H   0  0  0  0  0  0  0  0  0  0  0  0
   -6.2809  -16.4489   23.2668 H   0  0  0  0  0  0  0  0  0  0  0  0
   -6.0090  -18.1817   21.1889 H   0  0  0  0  0  0  0  0  0  0  0  0
   -5.4707  -16.6571   19.0097 H   0  0  0  0  0  0  0  0  0  0  0  0
  1  2  1  0
  2  3  1  0
  3  4  1  0
  4  5  2  0
  4  6  1  0
  6  7  1  0
  7  8  1  0
  8  9  2  0
  9 10  1  0
 10 11  1  0
 11 12  1  0
 11 13  1  0
 11 14  1  0
 14 15  2  0
 14 16  1  0
 10 17  1  0
  2 18  1  0
 18 19  1  0
 19 20  2  0
 20 21  1  0
 21 22  2  0
 17  7  2  0
 22 18  1  0
  1 23  1  0
  1 24  1  0
  1 25  1  0
  2 26  1  0
  3 27  1  0
  3 28  1  0
  6 29  1  0
  8 30  1  0
 12 31  1  0
 12 32  1  0
 12 33  1  0
 13 34  1  0
 13 35  1  0
 13 36  1  0
 16 37  1  0
 17 38  1  0
 19 39  1  0
 20 40  1  0
 21 41  1  0
 22 42  1  0
M  END
>  <Energy>  (429) 
13.203708814107937

>  <compound_id>  (429) 
51863

>  <target_id>  (429) 
1

>  <reference_id>  (429) 
96

>  <inspiration_ids>  (429) 
[96, 66]

>  <energy_score>  (429) 
-19.55641205448933

>  <distance_score>  (429) 
15.93331924803947

>  <path>  (429) 
/opt/xchem-fragalysis-2/maxwin/BulkDock/SCRATCH/511025/C51863-P96/C51863-P96.minimised.mol

>  <scratch_subdir>  (429) 
/opt/xchem-fragalysis-2/maxwin/BulkDock/SCRATCH/511025/C51863-P96

>  <fragmenstein_runtime>  (429) 
99.46326661109924

>  <fragmenstein_outcome>  (429) 
too moved

>  <fragmenstein_mode>  (429) 
expansion

>  <fragmenstein_error>  (429) 


$$$$
C51863-P66
     RDKit          3D

 42 43  0  0  0  0  0  0  0  0999 V2000
    1.4473  -18.7606   19.7886 C   0  0  0  0  0  0  0  0  0  0  0  0
    0.0992  -18.0430   19.5569 C   0  0  0  0  0  0  0  0  0  0  0  0
    0.1107  -17.6002   18.0392 C   0  0  0  0  0  0  0  0  0  0  0  0
    0.6131  -16.1520   17.5925 C   0  0  0  0  0  0  0  0  0  0  0  0
   -0.2614  -15.3881   17.2748 O   0  0  0  0  0  0  0  0  0  0  0  0
    2.0706  -16.0018   17.5572 N   0  0  0  0  0  0  0  0  0  0  0  0
    2.8755  -14.8947   17.2313 C   0  0  0  0  0  0  0  0  0  0  0  0
    2.5613  -13.6408   16.6410 C   0  0  0  0  0  0  0  0  0  0  0  0
    3.6001  -12.7894   16.5581 N   0  0  0  0  0  0  0  0  0  0  0  0
    4.6311  -13.4869   17.0879 N   0  0  0  0  0  0  0  0  0  0  0  0
    5.9981  -12.9300   17.1323 C   0  0  0  0  0  0  0  0  0  0  0  0
    6.7959  -13.4970   15.9407 C   0  0  0  0  0  0  0  0  0  0  0  0
    6.0836  -11.3730   17.0437 C   0  0  0  0  0  0  0  0  0  0  0  0
    6.6726  -13.3913   18.4263 C   0  0  0  0  0  0  0  0  0  0  0  0
    7.2807  -14.4411   18.5943 O   0  0  0  0  0  0  0  0  0  0  0  0
    6.5234  -12.5509   19.4713 O   0  0  0  0  0  0  0  0  0  0  0  0
    4.2419  -14.7792   17.4172 C   0  0  0  0  0  0  0  0  0  0  0  0
   -1.0534  -18.8795   19.9955 N   0  0  0  0  0  0  0  0  0  0  0  0
   -1.0217  -20.1745   20.4766 C   0  0  0  0  0  0  0  0  0  0  0  0
   -2.2874  -20.5382   20.8823 C   0  0  0  0  0  0  0  0  0  0  0  0
   -3.1321  -19.4320   20.6673 C   0  0  0  0  0  0  0  0  0  0  0  0
   -2.3533  -18.4315   20.1216 C   0  0  0  0  0  0  0  0  0  0  0  0
    1.5731  -19.5983   19.0918 H   0  0  0  0  0  0  0  0  0  0  0  0
    1.5449  -19.1789   20.7924 H   0  0  0  0  0  0  0  0  0  0  0  0
    2.2868  -18.0782   19.6352 H   0  0  0  0  0  0  0  0  0  0  0  0
    0.0498  -17.1489   20.1879 H   0  0  0  0  0  0  0  0  0  0  0  0
   -0.9209  -17.6654   17.6645 H   0  0  0  0  0  0  0  0  0  0  0  0
    0.6674  -18.3250   17.4303 H   0  0  0  0  0  0  0  0  0  0  0  0
    2.4964  -16.8141   17.9769 H   0  0  0  0  0  0  0  0  0  0  0  0
    1.5941  -13.3199   16.2741 H   0  0  0  0  0  0  0  0  0  0  0  0
    6.8201  -14.5933   15.9500 H   0  0  0  0  0  0  0  0  0  0  0  0
    6.3538  -13.1896   14.9858 H   0  0  0  0  0  0  0  0  0  0  0  0
    7.8360  -13.1512   15.9604 H   0  0  0  0  0  0  0  0  0  0  0  0
    7.1150  -11.0355   17.1903 H   0  0  0  0  0  0  0  0  0  0  0  0
    5.4590  -10.8942   17.8047 H   0  0  0  0  0  0  0  0  0  0  0  0
    5.7411  -11.0134   16.0669 H   0  0  0  0  0  0  0  0  0  0  0  0
    6.8753  -13.0523   20.2355 H   0  0  0  0  0  0  0  0  0  0  0  0
    4.9610  -15.4819   17.8130 H   0  0  0  0  0  0  0  0  0  0  0  0
   -0.1092  -20.7534   20.4849 H   0  0  0  0  0  0  0  0  0  0  0  0
   -2.5669  -21.5003   21.2913 H   0  0  0  0  0  0  0  0  0  0  0  0
   -4.1912  -19.3607   20.8771 H   0  0  0  0  0  0  0  0  0  0  0  0
   -2.6113  -17.4206   19.8284 H   0  0  0  0  0  0  0  0  0  0  0  0
  1  2  1  0
  2  3  1  0
  3  4  1  0
  4  5  2  0
  4  6  1  0
  6  7  1  0
  7  8  1  0
  8  9  2  0
  9 10  1  0
 10 11  1  0
 11 12  1  0
 11 13  1  0
 11 14  1  0
 14 15  2  0
 14 16  1  0
 10 17  1  0
  2 18  1  0
 18 19  1  0
 19 20  2  0
 20 21  1  0
 21 22  2  0
 17  7  2  0
 22 18  1  0
  1 23  1  0
  1 24  1  0
  1 25  1  0
  2 26  1  0
  3 27  1  0
  3 28  1  0
  6 29  1  0
  8 30  1  0
 12 31  1  0
 12 32  1  0
 12 33  1  0
 13 34  1  0
 13 35  1  0
 13 36  1  0
 16 37  1  0
 17 38  1  0
 19 39  1  0
 20 40  1  0
 21 41  1  0
 22 42  1  0
M  END
>  <Energy>  (430) 
16.076615386800842

>  <compound_id>  (430) 
51863

>  <target_id>  (430) 
1

>  <reference_id>  (430) 
66

>  <inspiration_ids>  (430) 
[96, 66]

>  <energy_score>  (430) 
-16.683505481795862

>  <distance_score>  (430) 
15.57693248819606

>  <path>  (430) 
/opt/xchem-fragalysis-2/maxwin/BulkDock/SCRATCH/511025/C51863-P66/C51863-P66.minimised.mol

>  <scratch_subdir>  (430) 
/opt/xchem-fragalysis-2/maxwin/BulkDock/SCRATCH/511025/C51863-P66

>  <fragmenstein_runtime>  (430) 
104.53255867958069

>  <fragmenstein_outcome>  (430) 
too moved

>  <fragmenstein_mode>  (430) 
expansion

>  <fragmenstein_error>  (430) 


$$$$
C51865-P96
     RDKit          3D

 42 43  0  0  0  0  0  0  0  0999 V2000
   -6.6976  -13.7925   26.8182 C   0  0  0  0  0  0  0  0  0  0  0  0
   -5.9003  -12.4914   26.6452 C   0  0  0  0  0  0  0  0  0  0  0  0
   -6.8885  -11.3628   26.2937 C   0  0  0  0  0  0  0  0  0  0  0  0
   -5.2049  -12.2555   27.9871 C   0  0  0  0  0  0  0  0  0  0  0  0
   -4.4293  -13.0220   28.5417 O   0  0  0  0  0  0  0  0  0  0  0  0
   -5.5544  -11.1173   28.6240 O   0  0  0  0  0  0  0  0  0  0  0  0
   -4.8863  -12.5763   25.5822 N   0  0  0  0  0  0  0  0  0  0  0  0
   -4.9002  -13.3276   24.4376 C   0  0  0  0  0  0  0  0  0  0  0  0
   -3.9007  -12.8101   23.6357 C   0  0  0  0  0  0  0  0  0  0  0  0
   -3.3157  -11.7561   24.3693 C   0  0  0  0  0  0  0  0  0  0  0  0
   -2.3165  -10.8692   24.0431 N   0  0  0  0  0  0  0  0  0  0  0  0
   -1.4169  -10.8188   22.8913 C   0  0  0  0  0  0  0  0  0  0  0  0
   -1.3752  -11.4945   21.8987 O   0  0  0  0  0  0  0  0  0  0  0  0
   -0.4096   -9.6335   23.0933 C   0  0  0  0  0  0  0  0  0  0  0  0
    0.6130   -9.3134   22.0945 N   0  0  0  0  0  0  0  0  0  0  0  0
    1.6316   -8.2915   22.0787 C   0  0  0  0  0  0  0  0  0  0  0  0
    1.9513   -7.4944   22.9139 O   0  0  0  0  0  0  0  0  0  0  0  0
    2.4652   -8.1915   20.8116 C   0  0  0  0  0  0  0  0  0  0  0  0
    2.9273   -6.9204   20.3935 C   0  0  0  0  0  0  0  0  0  0  0  0
    3.7381   -6.7699   19.2586 C   0  0  0  0  0  0  0  0  0  0  0  0
    4.1202   -7.8954   18.5344 C   0  0  0  0  0  0  0  0  0  0  0  0
    3.7043   -9.1620   18.9570 C   0  0  0  0  0  0  0  0  0  0  0  0
    2.8915   -9.3113   20.0919 C   0  0  0  0  0  0  0  0  0  0  0  0
   -3.9060  -11.6429   25.5629 N   0  0  0  0  0  0  0  0  0  0  0  0
   -6.0308  -14.6490   26.9660 H   0  0  0  0  0  0  0  0  0  0  0  0
   -7.3524  -13.7385   27.6959 H   0  0  0  0  0  0  0  0  0  0  0  0
   -7.3325  -13.9931   25.9489 H   0  0  0  0  0  0  0  0  0  0  0  0
   -7.6718  -11.2655   27.0544 H   0  0  0  0  0  0  0  0  0  0  0  0
   -6.3842  -10.3922   26.2161 H   0  0  0  0  0  0  0  0  0  0  0  0
   -7.3802  -11.5511   25.3319 H   0  0  0  0  0  0  0  0  0  0  0  0
   -4.9889  -11.1192   29.4255 H   0  0  0  0  0  0  0  0  0  0  0  0
   -5.6317  -14.0962   24.2439 H   0  0  0  0  0  0  0  0  0  0  0  0
   -3.6585  -13.1078   22.6268 H   0  0  0  0  0  0  0  0  0  0  0  0
   -2.0077  -10.1998   24.7345 H   0  0  0  0  0  0  0  0  0  0  0  0
   -0.9976   -8.7171   23.2221 H   0  0  0  0  0  0  0  0  0  0  0  0
    0.1314   -9.8077   24.0307 H   0  0  0  0  0  0  0  0  0  0  0  0
    0.5670   -9.7490   21.1793 H   0  0  0  0  0  0  0  0  0  0  0  0
    2.6397   -6.0363   20.9612 H   0  0  0  0  0  0  0  0  0  0  0  0
    4.0550   -5.7784   18.9443 H   0  0  0  0  0  0  0  0  0  0  0  0
    4.7313   -7.7929   17.6406 H   0  0  0  0  0  0  0  0  0  0  0  0
    4.0176  -10.0437   18.4010 H   0  0  0  0  0  0  0  0  0  0  0  0
    2.6172  -10.3131   20.4128 H   0  0  0  0  0  0  0  0  0  0  0  0
  1  2  1  0
  2  3  1  0
  2  4  1  0
  4  5  2  0
  4  6  1  0
  2  7  1  0
  7  8  1  0
  8  9  2  0
  9 10  1  0
 10 11  1  0
 11 12  1  0
 12 13  2  0
 12 14  1  0
 14 15  1  0
 15 16  1  0
 16 17  2  0
 16 18  1  0
 18 19  2  0
 19 20  1  0
 20 21  2  0
 21 22  1  0
 22 23  2  0
 10 24  2  0
 24  7  1  0
 23 18  1  0
  1 25  1  0
  1 26  1  0
  1 27  1  0
  3 28  1  0
  3 29  1  0
  3 30  1  0
  6 31  1  0
  8 32  1  0
  9 33  1  0
 11 34  1  0
 14 35  1  0
 14 36  1  0
 15 37  1  0
 19 38  1  0
 20 39  1  0
 21 40  1  0
 22 41  1  0
 23 42  1  0
M  END
>  <Energy>  (431) 
15.435647691808239

>  <compound_id>  (431) 
51865

>  <target_id>  (431) 
1

>  <reference_id>  (431) 
96

>  <inspiration_ids>  (431) 
[96, 66]

>  <energy_score>  (431) 
-50.89010154635628

>  <distance_score>  (431) 
14.510010475568935

>  <path>  (431) 
/opt/xchem-fragalysis-2/maxwin/BulkDock/SCRATCH/511025/C51865-P96/C51865-P96.minimised.mol

>  <scratch_subdir>  (431) 
/opt/xchem-fragalysis-2/maxwin/BulkDock/SCRATCH/511025/C51865-P96

>  <fragmenstein_runtime>  (431) 
39.18379044532776

>  <fragmenstein_outcome>  (431) 
too moved

>  <fragmenstein_mode>  (431) 
expansion

>  <fragmenstein_error>  (431) 


$$$$
C51865-P66
     RDKit          3D

 42 43  0  0  0  0  0  0  0  0999 V2000
    3.5668  -24.6903   24.4751 C   0  0  0  0  0  0  0  0  0  0  0  0
    4.3045  -24.8363   25.8167 C   0  0  0  0  0  0  0  0  0  0  0  0
    5.2570  -26.0474   25.7143 C   0  0  0  0  0  0  0  0  0  0  0  0
    3.2505  -25.0835   26.8969 C   0  0  0  0  0  0  0  0  0  0  0  0
    2.1718  -24.5149   27.0004 O   0  0  0  0  0  0  0  0  0  0  0  0
    3.5961  -25.9936   27.8309 O   0  0  0  0  0  0  0  0  0  0  0  0
    5.0742  -23.6122   26.1063 N   0  0  0  0  0  0  0  0  0  0  0  0
    4.9648  -22.7541   27.1631 C   0  0  0  0  0  0  0  0  0  0  0  0
    6.0831  -21.9446   27.1107 C   0  0  0  0  0  0  0  0  0  0  0  0
    6.8102  -22.3446   25.9628 C   0  0  0  0  0  0  0  0  0  0  0  0
    7.9934  -21.8537   25.4306 N   0  0  0  0  0  0  0  0  0  0  0  0
    8.9012  -20.8033   25.9089 C   0  0  0  0  0  0  0  0  0  0  0  0
    8.8881  -20.1607   26.9225 O   0  0  0  0  0  0  0  0  0  0  0  0
    9.9930  -20.4513   24.7934 C   0  0  0  0  0  0  0  0  0  0  0  0
    9.9486  -19.1373   24.0927 N   0  0  0  0  0  0  0  0  0  0  0  0
   10.8092  -17.9703   24.2020 C   0  0  0  0  0  0  0  0  0  0  0  0
   11.7242  -17.7419   24.9410 O   0  0  0  0  0  0  0  0  0  0  0  0
   10.5789  -16.8653   23.1555 C   0  0  0  0  0  0  0  0  0  0  0  0
   10.7514  -15.5057   23.5125 C   0  0  0  0  0  0  0  0  0  0  0  0
   10.6752  -14.4661   22.5632 C   0  0  0  0  0  0  0  0  0  0  0  0
   10.4399  -14.7684   21.2266 C   0  0  0  0  0  0  0  0  0  0  0  0
   10.2840  -16.1065   20.8502 C   0  0  0  0  0  0  0  0  0  0  0  0
   10.3590  -17.1426   21.8004 C   0  0  0  0  0  0  0  0  0  0  0  0
    6.1374  -23.3050   25.3155 N   0  0  0  0  0  0  0  0  0  0  0  0
    2.8929  -23.8298   24.4851 H   0  0  0  0  0  0  0  0  0  0  0  0
    2.9586  -25.5768   24.2599 H   0  0  0  0  0  0  0  0  0  0  0  0
    4.2628  -24.5502   23.6403 H   0  0  0  0  0  0  0  0  0  0  0  0
    5.9353  -25.9597   24.8575 H   0  0  0  0  0  0  0  0  0  0  0  0
    4.6982  -26.9831   25.5946 H   0  0  0  0  0  0  0  0  0  0  0  0
    5.8802  -26.1439   26.6115 H   0  0  0  0  0  0  0  0  0  0  0  0
    2.8354  -26.0363   28.4488 H   0  0  0  0  0  0  0  0  0  0  0  0
    4.1657  -22.8153   27.8860 H   0  0  0  0  0  0  0  0  0  0  0  0
    6.3591  -21.1745   27.8177 H   0  0  0  0  0  0  0  0  0  0  0  0
    8.3543  -22.2370   24.5675 H   0  0  0  0  0  0  0  0  0  0  0  0
   10.9671  -20.5153   25.2921 H   0  0  0  0  0  0  0  0  0  0  0  0
    9.9842  -21.2102   24.0055 H   0  0  0  0  0  0  0  0  0  0  0  0
    9.3296  -19.0189   23.2974 H   0  0  0  0  0  0  0  0  0  0  0  0
   10.9564  -15.2574   24.5534 H   0  0  0  0  0  0  0  0  0  0  0  0
   10.8084  -13.4354   22.8807 H   0  0  0  0  0  0  0  0  0  0  0  0
   10.3853  -13.9778   20.4833 H   0  0  0  0  0  0  0  0  0  0  0  0
   10.1166  -16.3495   19.8026 H   0  0  0  0  0  0  0  0  0  0  0  0
   10.2857  -18.1685   21.4517 H   0  0  0  0  0  0  0  0  0  0  0  0
  1  2  1  0
  2  3  1  0
  2  4  1  0
  4  5  2  0
  4  6  1  0
  2  7  1  0
  7  8  1  0
  8  9  2  0
  9 10  1  0
 10 11  1  0
 11 12  1  0
 12 13  2  0
 12 14  1  0
 14 15  1  0
 15 16  1  0
 16 17  2  0
 16 18  1  0
 18 19  2  0
 19 20  1  0
 20 21  2  0
 21 22  1  0
 22 23  2  0
 10 24  2  0
 24  7  1  0
 23 18  1  0
  1 25  1  0
  1 26  1  0
  1 27  1  0
  3 28  1  0
  3 29  1  0
  3 30  1  0
  6 31  1  0
  8 32  1  0
  9 33  1  0
 11 34  1  0
 14 35  1  0
 14 36  1  0
 15 37  1  0
 19 38  1  0
 20 39  1  0
 21 40  1  0
 22 41  1  0
 23 42  1  0
M  END
>  <Energy>  (432) 
25.551536545874324

>  <compound_id>  (432) 
51865

>  <target_id>  (432) 
1

>  <reference_id>  (432) 
66

>  <inspiration_ids>  (432) 
[96, 66]

>  <energy_score>  (432) 
-40.774212692288245

>  <distance_score>  (432) 
17.374318256635586

>  <path>  (432) 
/opt/xchem-fragalysis-2/maxwin/BulkDock/SCRATCH/511025/C51865-P66/C51865-P66.minimised.mol

>  <scratch_subdir>  (432) 
/opt/xchem-fragalysis-2/maxwin/BulkDock/SCRATCH/511025/C51865-P66

>  <fragmenstein_runtime>  (432) 
51.99458861351013

>  <fragmenstein_outcome>  (432) 
too moved

>  <fragmenstein_mode>  (432) 
expansion

>  <fragmenstein_error>  (432) 


$$$$
C51867-P96
     RDKit          3D

 40 41  0  0  0  0  0  0  0  0999 V2000
   -2.9032  -20.8411   21.5743 C   0  0  0  0  0  0  0  0  0  0  0  0
   -2.6422  -20.3794   23.0961 C   0  0  0  0  0  0  0  0  0  0  0  0
   -3.9804  -20.9573   23.7225 C   0  0  0  0  0  0  0  0  0  0  0  0
   -1.4229  -21.3452   23.2829 C   0  0  0  0  0  0  0  0  0  0  0  0
   -0.2688  -21.1955   22.9109 O   0  0  0  0  0  0  0  0  0  0  0  0
   -1.7118  -22.5420   23.8507 O   0  0  0  0  0  0  0  0  0  0  0  0
   -2.2601  -18.9396   23.5743 N   0  0  0  0  0  0  0  0  0  0  0  0
   -2.5665  -17.4774   24.7690 C   0  0  0  0  0  0  0  0  0  0  0  0
   -2.7634  -15.6438   24.2395 C   0  0  0  0  0  0  0  0  0  0  0  0
   -1.8956  -14.3724   23.0671 N   0  0  0  0  0  0  0  0  0  0  0  0
   -1.6010  -12.9104   23.2125 C   0  0  0  0  0  0  0  0  0  0  0  0
   -1.9768  -12.2004   24.0504 O   0  0  0  0  0  0  0  0  0  0  0  0
   -0.2705  -12.4602   21.8987 N   0  0  0  0  0  0  0  0  0  0  0  0
    0.9318  -10.7869   21.7194 C   0  0  0  0  0  0  0  0  0  0  0  0
    2.5190  -10.3546   20.6079 C   0  0  0  0  0  0  0  0  0  0  0  0
    3.0586  -11.1424   19.3108 C   0  0  0  0  0  0  0  0  0  0  0  0
    4.1450  -10.7597   18.3246 C   0  0  0  0  0  0  0  0  0  0  0  0
    4.7008   -9.4810   18.3525 C   0  0  0  0  0  0  0  0  0  0  0  0
    4.1315   -8.5592   19.2356 C   0  0  0  0  0  0  0  0  0  0  0  0
    3.0738   -8.9321   20.1978 C   0  0  0  0  0  0  0  0  0  0  0  0
   -1.7338  -16.8442   24.5754 C   0  0  0  0  0  0  0  0  0  0  0  0
   -1.4760  -17.8604   23.0060 N   0  0  0  0  0  0  0  0  0  0  0  0
   -2.6180  -20.1742   20.7892 H   0  0  0  0  0  0  0  0  0  0  0  0
   -2.4227  -21.8020   21.3361 H   0  0  0  0  0  0  0  0  0  0  0  0
   -3.9527  -21.0556   21.3392 H   0  0  0  0  0  0  0  0  0  0  0  0
   -4.3370  -20.3417   24.5443 H   0  0  0  0  0  0  0  0  0  0  0  0
   -3.9055  -21.9956   24.0643 H   0  0  0  0  0  0  0  0  0  0  0  0
   -4.8267  -20.9970   23.0306 H   0  0  0  0  0  0  0  0  0  0  0  0
   -0.8737  -23.0430   23.7524 H   0  0  0  0  0  0  0  0  0  0  0  0
   -3.4551  -18.1852   24.7831 H   0  0  0  0  0  0  0  0  0  0  0  0
   -1.5342  -14.6720   22.2501 H   0  0  0  0  0  0  0  0  0  0  0  0
   -0.1730  -13.2088   21.2140 H   0  0  0  0  0  0  0  0  0  0  0  0
    1.7188  -11.4176   22.1173 H   0  0  0  0  0  0  0  0  0  0  0  0
    0.3227  -10.3523   20.9390 H   0  0  0  0  0  0  0  0  0  0  0  0
    2.5584  -12.0834   19.1460 H   0  0  0  0  0  0  0  0  0  0  0  0
    4.4173  -11.4838   17.5598 H   0  0  0  0  0  0  0  0  0  0  0  0
    5.4483   -9.1818   17.6268 H   0  0  0  0  0  0  0  0  0  0  0  0
    4.3891   -7.5055   19.1400 H   0  0  0  0  0  0  0  0  0  0  0  0
    2.5643   -8.0047   20.4539 H   0  0  0  0  0  0  0  0  0  0  0  0
   -0.7528  -16.5657   25.0725 H   0  0  0  0  0  0  0  0  0  0  0  0
  1  2  1  0
  2  3  1  0
  2  4  1  0
  4  5  2  0
  4  6  1  0
  2  7  1  0
  7  8  1  0
  8  9  2  0
  9 10  1  0
 10 11  1  0
 11 12  2  0
 11 13  1  0
 13 14  1  0
 14 15  1  0
 15 16  2  0
 16 17  1  0
 17 18  2  0
 18 19  1  0
 19 20  2  0
  9 21  1  0
 21 22  2  0
 22  7  1  0
 20 15  1  0
  1 23  1  0
  1 24  1  0
  1 25  1  0
  3 26  1  0
  3 27  1  0
  3 28  1  0
  6 29  1  0
  8 30  1  0
 10 31  1  0
 13 32  1  0
 14 33  1  0
 14 34  1  0
 16 35  1  0
 17 36  1  0
 18 37  1  0
 19 38  1  0
 20 39  1  0
 21 40  1  0
M  END
>  <Energy>  (433) 
1017.305021513147

>  <compound_id>  (433) 
51867

>  <target_id>  (433) 
1

>  <reference_id>  (433) 
96

>  <inspiration_ids>  (433) 
[96, 66]

>  <energy_score>  (433) 
1001.9052390449681

>  <distance_score>  (433) 
12.629109321490857

>  <path>  (433) 
/opt/xchem-fragalysis-2/maxwin/BulkDock/SCRATCH/511025/C51867-P96/C51867-P96.minimised.mol

>  <scratch_subdir>  (433) 
/opt/xchem-fragalysis-2/maxwin/BulkDock/SCRATCH/511025/C51867-P96

>  <fragmenstein_runtime>  (433) 
22.775508880615234

>  <fragmenstein_outcome>  (433) 
too moved

>  <fragmenstein_mode>  (433) 
expansion

>  <fragmenstein_error>  (433) 


$$$$
C51867-P66
     RDKit          3D

 40 41  0  0  0  0  0  0  0  0999 V2000
   -2.8458  -20.7768   24.5212 C   0  0  0  0  0  0  0  0  0  0  0  0
   -1.8060  -20.4489   23.0946 C   0  0  0  0  0  0  0  0  0  0  0  0
   -0.5422  -21.6582   23.5596 C   0  0  0  0  0  0  0  0  0  0  0  0
   -2.8255  -21.6248   22.1475 C   0  0  0  0  0  0  0  0  0  0  0  0
   -3.2157  -21.5709   20.9906 O   0  0  0  0  0  0  0  0  0  0  0  0
   -3.0961  -22.7614   22.8442 O   0  0  0  0  0  0  0  0  0  0  0  0
   -1.2641  -18.8541   22.0708 N   0  0  0  0  0  0  0  0  0  0  0  0
   -0.1119  -18.0164   21.6769 C   0  0  0  0  0  0  0  0  0  0  0  0
   -0.1386  -16.7868   21.0147 C   0  0  0  0  0  0  0  0  0  0  0  0
    0.8376  -16.4507   20.0587 N   0  0  0  0  0  0  0  0  0  0  0  0
    2.1733  -15.1443   20.0616 C   0  0  0  0  0  0  0  0  0  0  0  0
    2.4939  -14.4250   20.8838 O   0  0  0  0  0  0  0  0  0  0  0  0
    2.7903  -15.1370   18.4538 N   0  0  0  0  0  0  0  0  0  0  0  0
    3.7522  -14.1807   17.7624 C   0  0  0  0  0  0  0  0  0  0  0  0
    5.1969  -13.6687   17.9276 C   0  0  0  0  0  0  0  0  0  0  0  0
    6.2776  -14.3432   18.4829 C   0  0  0  0  0  0  0  0  0  0  0  0
    7.5757  -13.7782   18.4931 C   0  0  0  0  0  0  0  0  0  0  0  0
    7.8440  -12.5416   17.9045 C   0  0  0  0  0  0  0  0  0  0  0  0
    6.8084  -11.8640   17.2891 C   0  0  0  0  0  0  0  0  0  0  0  0
    5.5186  -12.4234   17.3004 C   0  0  0  0  0  0  0  0  0  0  0  0
   -1.4071  -17.1212   20.3662 C   0  0  0  0  0  0  0  0  0  0  0  0
   -1.9692  -18.2984   20.6698 N   0  0  0  0  0  0  0  0  0  0  0  0
   -2.8689  -20.0849   25.3628 H   0  0  0  0  0  0  0  0  0  0  0  0
   -2.4915  -21.6979   25.0043 H   0  0  0  0  0  0  0  0  0  0  0  0
   -3.8576  -21.1111   24.3061 H   0  0  0  0  0  0  0  0  0  0  0  0
   -0.5503  -22.5185   22.8757 H   0  0  0  0  0  0  0  0  0  0  0  0
    0.4647  -21.2324   23.6655 H   0  0  0  0  0  0  0  0  0  0  0  0
   -0.7572  -22.1557   24.5120 H   0  0  0  0  0  0  0  0  0  0  0  0
   -3.6641  -23.2552   22.2117 H   0  0  0  0  0  0  0  0  0  0  0  0
    0.7787  -18.5893   21.5869 H   0  0  0  0  0  0  0  0  0  0  0  0
    0.8476  -17.0013   19.2097 H   0  0  0  0  0  0  0  0  0  0  0  0
    2.2989  -15.8009   17.9104 H   0  0  0  0  0  0  0  0  0  0  0  0
    3.7263  -14.5481   16.7272 H   0  0  0  0  0  0  0  0  0  0  0  0
    3.2071  -13.2652   17.7496 H   0  0  0  0  0  0  0  0  0  0  0  0
    6.1309  -15.3236   18.9281 H   0  0  0  0  0  0  0  0  0  0  0  0
    8.3849  -14.3329   18.9624 H   0  0  0  0  0  0  0  0  0  0  0  0
    8.8481  -12.1300   17.9098 H   0  0  0  0  0  0  0  0  0  0  0  0
    6.9848  -10.9193   16.7864 H   0  0  0  0  0  0  0  0  0  0  0  0
    4.7278  -11.8543   16.8109 H   0  0  0  0  0  0  0  0  0  0  0  0
   -1.8670  -16.5622   19.5656 H   0  0  0  0  0  0  0  0  0  0  0  0
  1  2  1  0
  2  3  1  0
  2  4  1  0
  4  5  2  0
  4  6  1  0
  2  7  1  0
  7  8  1  0
  8  9  2  0
  9 10  1  0
 10 11  1  0
 11 12  2  0
 11 13  1  0
 13 14  1  0
 14 15  1  0
 15 16  2  0
 16 17  1  0
 17 18  2  0
 18 19  1  0
 19 20  2  0
  9 21  1  0
 21 22  2  0
 22  7  1  0
 20 15  1  0
  1 23  1  0
  1 24  1  0
  1 25  1  0
  3 26  1  0
  3 27  1  0
  3 28  1  0
  6 29  1  0
  8 30  1  0
 10 31  1  0
 13 32  1  0
 14 33  1  0
 14 34  1  0
 16 35  1  0
 17 36  1  0
 18 37  1  0
 19 38  1  0
 20 39  1  0
 21 40  1  0
M  END
>  <Energy>  (434) 
400.355945713962

>  <compound_id>  (434) 
51867

>  <target_id>  (434) 
1

>  <reference_id>  (434) 
66

>  <inspiration_ids>  (434) 
[96, 66]

>  <energy_score>  (434) 
384.9561632457678

>  <distance_score>  (434) 
13.813880194317619

>  <path>  (434) 
/opt/xchem-fragalysis-2/maxwin/BulkDock/SCRATCH/511025/C51867-P66/C51867-P66.minimised.mol

>  <scratch_subdir>  (434) 
/opt/xchem-fragalysis-2/maxwin/BulkDock/SCRATCH/511025/C51867-P66

>  <fragmenstein_runtime>  (434) 
24.189727783203125

>  <fragmenstein_outcome>  (434) 
too moved

>  <fragmenstein_mode>  (434) 
expansion

>  <fragmenstein_error>  (434) 


$$$$
C51868-P96
     RDKit          3D

 41 42  0  0  0  0  0  0  0  0999 V2000
   -9.5445  -20.6837   28.4541 C   0  0  0  0  0  0  0  0  0  0  0  0
   -7.8606  -21.4899   28.0638 C   0  0  0  0  0  0  0  0  0  0  0  0
   -8.9454  -22.8011   27.2512 C   0  0  0  0  0  0  0  0  0  0  0  0
   -8.2034  -22.8770   29.2924 C   0  0  0  0  0  0  0  0  0  0  0  0
   -7.5273  -23.8462   29.5912 O   0  0  0  0  0  0  0  0  0  0  0  0
   -9.4171  -22.9290   29.9165 O   0  0  0  0  0  0  0  0  0  0  0  0
   -6.2147  -20.6217   27.3801 N   0  0  0  0  0  0  0  0  0  0  0  0
   -5.5261  -18.9279   26.6516 C   0  0  0  0  0  0  0  0  0  0  0  0
   -4.1669  -18.6441   25.4033 C   0  0  0  0  0  0  0  0  0  0  0  0
   -2.6620  -17.3304   24.7945 N   0  0  0  0  0  0  0  0  0  0  0  0
   -2.7112  -15.3851   24.1307 C   0  0  0  0  0  0  0  0  0  0  0  0
   -3.7730  -14.9683   24.2293 O   0  0  0  0  0  0  0  0  0  0  0  0
   -1.5365  -13.8752   23.0840 C   0  0  0  0  0  0  0  0  0  0  0  0
    0.1007  -12.6522   22.3852 C   0  0  0  0  0  0  0  0  0  0  0  0
    1.9070  -12.0038   21.5362 C   0  0  0  0  0  0  0  0  0  0  0  0
    2.1236  -10.6299   21.2591 C   0  0  0  0  0  0  0  0  0  0  0  0
    3.0798   -9.6218   20.0805 C   0  0  0  0  0  0  0  0  0  0  0  0
    3.9199  -10.0084   18.9250 C   0  0  0  0  0  0  0  0  0  0  0  0
    3.5054  -11.3262   18.6937 C   0  0  0  0  0  0  0  0  0  0  0  0
    2.4435  -12.1507   19.8010 C   0  0  0  0  0  0  0  0  0  0  0  0
   -4.5131  -20.4445   25.4241 C   0  0  0  0  0  0  0  0  0  0  0  0
   -5.1296  -21.3435   26.4249 N   0  0  0  0  0  0  0  0  0  0  0  0
  -10.1658  -20.4333   27.6005 H   0  0  0  0  0  0  0  0  0  0  0  0
   -9.6881  -19.9355   29.2375 H   0  0  0  0  0  0  0  0  0  0  0  0
  -10.2245  -21.4454   28.8459 H   0  0  0  0  0  0  0  0  0  0  0  0
   -8.6336  -23.1395   26.3103 H   0  0  0  0  0  0  0  0  0  0  0  0
   -9.9929  -22.4826   27.1290 H   0  0  0  0  0  0  0  0  0  0  0  0
   -9.1268  -23.7606   27.7657 H   0  0  0  0  0  0  0  0  0  0  0  0
   -9.3538  -23.7556   30.4416 H   0  0  0  0  0  0  0  0  0  0  0  0
   -6.2068  -18.1502   26.9918 H   0  0  0  0  0  0  0  0  0  0  0  0
   -1.7080  -17.6466   24.7771 H   0  0  0  0  0  0  0  0  0  0  0  0
   -2.0537  -13.8557   22.1438 H   0  0  0  0  0  0  0  0  0  0  0  0
   -2.0492  -13.0281   23.6215 H   0  0  0  0  0  0  0  0  0  0  0  0
    0.8020  -13.3640   21.9476 H   0  0  0  0  0  0  0  0  0  0  0  0
    0.2501  -12.1168   23.3652 H   0  0  0  0  0  0  0  0  0  0  0  0
    1.3693  -10.1168   21.8202 H   0  0  0  0  0  0  0  0  0  0  0  0
    2.8959   -8.5329   20.1289 H   0  0  0  0  0  0  0  0  0  0  0  0
    4.4406   -9.3479   18.2549 H   0  0  0  0  0  0  0  0  0  0  0  0
    3.6839  -11.7741   17.7147 H   0  0  0  0  0  0  0  0  0  0  0  0
    1.9584  -12.9856   19.2587 H   0  0  0  0  0  0  0  0  0  0  0  0
   -4.1610  -20.9841   24.5386 H   0  0  0  0  0  0  0  0  0  0  0  0
  1  2  1  0
  2  3  1  0
  2  4  1  0
  4  5  2  0
  4  6  1  0
  2  7  1  0
  7  8  1  0
  8  9  2  0
  9 10  1  0
 10 11  1  0
 11 12  2  0
 11 13  1  0
 13 14  1  0
 14 15  1  0
 15 16  2  0
 16 17  1  0
 17 18  2  0
 18 19  1  0
 19 20  2  0
  9 21  1  0
 21 22  2  0
 22  7  1  0
 20 15  1  0
  1 23  1  0
  1 24  1  0
  1 25  1  0
  3 26  1  0
  3 27  1  0
  3 28  1  0
  6 29  1  0
  8 30  1  0
 10 31  1  0
 13 32  1  0
 13 33  1  0
 14 34  1  0
 14 35  1  0
 16 36  1  0
 17 37  1  0
 18 38  1  0
 19 39  1  0
 20 40  1  0
 21 41  1  0
M  END
>  <Energy>  (435) 
1709.5949353126389

>  <compound_id>  (435) 
51868

>  <target_id>  (435) 
1

>  <reference_id>  (435) 
96

>  <inspiration_ids>  (435) 
[96, 66]

>  <energy_score>  (435) 
1661.2903264937859

>  <distance_score>  (435) 
12.355847218688808

>  <path>  (435) 
/opt/xchem-fragalysis-2/maxwin/BulkDock/SCRATCH/511025/C51868-P96/C51868-P96.minimised.mol

>  <scratch_subdir>  (435) 
/opt/xchem-fragalysis-2/maxwin/BulkDock/SCRATCH/511025/C51868-P96

>  <fragmenstein_runtime>  (435) 
24.26092529296875

>  <fragmenstein_outcome>  (435) 
too moved

>  <fragmenstein_mode>  (435) 
expansion

>  <fragmenstein_error>  (435) 


$$$$
C51868-P66
     RDKit          3D

 41 42  0  0  0  0  0  0  0  0999 V2000
   -4.2629  -18.1620   29.8256 C   0  0  0  0  0  0  0  0  0  0  0  0
   -3.4424  -18.5850   28.2448 C   0  0  0  0  0  0  0  0  0  0  0  0
   -3.9130  -19.9855   27.4669 C   0  0  0  0  0  0  0  0  0  0  0  0
   -2.0155  -19.3039   28.3739 C   0  0  0  0  0  0  0  0  0  0  0  0
   -1.1053  -19.2173   27.5560 O   0  0  0  0  0  0  0  0  0  0  0  0
   -1.8694  -20.1210   29.4553 O   0  0  0  0  0  0  0  0  0  0  0  0
   -3.2675  -17.0655   27.7014 N   0  0  0  0  0  0  0  0  0  0  0  0
   -2.3572  -16.2821   26.8765 C   0  0  0  0  0  0  0  0  0  0  0  0
   -2.5377  -14.4760   26.7668 C   0  0  0  0  0  0  0  0  0  0  0  0
   -2.6872  -12.6291   26.0688 N   0  0  0  0  0  0  0  0  0  0  0  0
   -2.6853  -10.8670   27.0183 C   0  0  0  0  0  0  0  0  0  0  0  0
   -2.6857  -10.7789   28.2680 O   0  0  0  0  0  0  0  0  0  0  0  0
   -2.5117   -9.1462   26.2861 C   0  0  0  0  0  0  0  0  0  0  0  0
   -1.2017   -7.9930   26.5551 C   0  0  0  0  0  0  0  0  0  0  0  0
   -0.2862   -7.1533   25.5524 C   0  0  0  0  0  0  0  0  0  0  0  0
   -0.3950   -7.0470   24.1534 C   0  0  0  0  0  0  0  0  0  0  0  0
    0.5633   -6.3680   23.3558 C   0  0  0  0  0  0  0  0  0  0  0  0
    1.6467   -5.7177   23.9338 C   0  0  0  0  0  0  0  0  0  0  0  0
    1.7571   -5.7338   25.3165 C   0  0  0  0  0  0  0  0  0  0  0  0
    0.8092   -6.4362   26.1025 C   0  0  0  0  0  0  0  0  0  0  0  0
   -2.3998  -15.0551   28.2682 C   0  0  0  0  0  0  0  0  0  0  0  0
   -3.2804  -16.1077   28.6340 N   0  0  0  0  0  0  0  0  0  0  0  0
   -5.2697  -17.7876   29.6460 H   0  0  0  0  0  0  0  0  0  0  0  0
   -4.1424  -18.9383   30.5937 H   0  0  0  0  0  0  0  0  0  0  0  0
   -3.9042  -17.2937   30.4016 H   0  0  0  0  0  0  0  0  0  0  0  0
   -3.2669  -20.2283   26.6051 H   0  0  0  0  0  0  0  0  0  0  0  0
   -4.9419  -19.9972   27.1018 H   0  0  0  0  0  0  0  0  0  0  0  0
   -3.7953  -20.8800   28.0993 H   0  0  0  0  0  0  0  0  0  0  0  0
   -2.5831  -20.0889   30.1161 H   0  0  0  0  0  0  0  0  0  0  0  0
   -1.5001  -16.8336   27.2909 H   0  0  0  0  0  0  0  0  0  0  0  0
   -2.7697  -12.4742   25.0803 H   0  0  0  0  0  0  0  0  0  0  0  0
   -2.5814   -9.2729   25.2155 H   0  0  0  0  0  0  0  0  0  0  0  0
   -3.2898   -8.6076   26.8545 H   0  0  0  0  0  0  0  0  0  0  0  0
   -0.5378   -8.4935   27.2720 H   0  0  0  0  0  0  0  0  0  0  0  0
   -1.7072   -7.2005   27.1282 H   0  0  0  0  0  0  0  0  0  0  0  0
   -1.1980   -7.5322   23.6106 H   0  0  0  0  0  0  0  0  0  0  0  0
    0.4466   -6.3717   22.2738 H   0  0  0  0  0  0  0  0  0  0  0  0
    2.3758   -5.2012   23.3194 H   0  0  0  0  0  0  0  0  0  0  0  0
    2.5825   -5.2240   25.8053 H   0  0  0  0  0  0  0  0  0  0  0  0
    0.9600   -6.4515   27.1819 H   0  0  0  0  0  0  0  0  0  0  0  0
   -2.2428  -14.4718   29.1663 H   0  0  0  0  0  0  0  0  0  0  0  0
  1  2  1  0
  2  3  1  0
  2  4  1  0
  4  5  2  0
  4  6  1  0
  2  7  1  0
  7  8  1  0
  8  9  2  0
  9 10  1  0
 10 11  1  0
 11 12  2  0
 11 13  1  0
 13 14  1  0
 14 15  1  0
 15 16  2  0
 16 17  1  0
 17 18  2  0
 18 19  1  0
 19 20  2  0
  9 21  1  0
 21 22  2  0
 22  7  1  0
 20 15  1  0
  1 23  1  0
  1 24  1  0
  1 25  1  0
  3 26  1  0
  3 27  1  0
  3 28  1  0
  6 29  1  0
  8 30  1  0
 10 31  1  0
 13 32  1  0
 13 33  1  0
 14 34  1  0
 14 35  1  0
 16 36  1  0
 17 37  1  0
 18 38  1  0
 19 39  1  0
 20 40  1  0
 21 41  1  0
M  END
>  <Energy>  (436) 
678.28935738157236

>  <compound_id>  (436) 
51868

>  <target_id>  (436) 
1

>  <reference_id>  (436) 
66

>  <inspiration_ids>  (436) 
[96, 66]

>  <energy_score>  (436) 
629.984748562696

>  <distance_score>  (436) 
14.383086474859818

>  <path>  (436) 
/opt/xchem-fragalysis-2/maxwin/BulkDock/SCRATCH/511025/C51868-P66/C51868-P66.minimised.mol

>  <scratch_subdir>  (436) 
/opt/xchem-fragalysis-2/maxwin/BulkDock/SCRATCH/511025/C51868-P66

>  <fragmenstein_runtime>  (436) 
22.05185055732727

>  <fragmenstein_outcome>  (436) 
too moved

>  <fragmenstein_mode>  (436) 
expansion

>  <fragmenstein_error>  (436) 


$$$$
C51871-P96
     RDKit          3D

 44 45  0  0  0  0  0  0  0  0999 V2000
    2.0832  -10.8760   20.2729 C   0  0  0  0  0  0  0  0  0  0  0  0
    1.3777  -11.2466   21.8963 C   0  0  0  0  0  0  0  0  0  0  0  0
    2.5853  -12.1621   22.1893 C   0  0  0  0  0  0  0  0  0  0  0  0
   -0.4651  -12.5060   22.0026 C   0  0  0  0  0  0  0  0  0  0  0  0
   -0.6295  -13.1793   20.9949 O   0  0  0  0  0  0  0  0  0  0  0  0
   -1.3296  -12.5372   23.3632 N   0  0  0  0  0  0  0  0  0  0  0  0
   -2.6775  -13.6088   23.9210 C   0  0  0  0  0  0  0  0  0  0  0  0
   -2.4543  -13.8079   25.7977 C   0  0  0  0  0  0  0  0  0  0  0  0
   -2.7119  -15.0636   26.3823 N   0  0  0  0  0  0  0  0  0  0  0  0
   -2.3110  -16.1346   25.6100 N   0  0  0  0  0  0  0  0  0  0  0  0
   -2.4964  -17.9632   25.9671 C   0  0  0  0  0  0  0  0  0  0  0  0
   -2.9590  -19.0600   24.7782 C   0  0  0  0  0  0  0  0  0  0  0  0
   -3.7419  -18.2326   26.8575 C   0  0  0  0  0  0  0  0  0  0  0  0
   -1.6644  -19.0026   27.0023 C   0  0  0  0  0  0  0  0  0  0  0  0
   -0.5999  -18.8571   27.5682 O   0  0  0  0  0  0  0  0  0  0  0  0
   -2.1820  -20.2779   27.2023 O   0  0  0  0  0  0  0  0  0  0  0  0
   -2.9218  -15.1672   24.2453 C   0  0  0  0  0  0  0  0  0  0  0  0
    2.5254   -9.6191   21.4765 C   0  0  0  0  0  0  0  0  0  0  0  0
    3.9065   -9.2346   22.0030 C   0  0  0  0  0  0  0  0  0  0  0  0
    4.8273   -8.1392   21.7072 C   0  0  0  0  0  0  0  0  0  0  0  0
    4.5958   -7.2382   20.7004 C   0  0  0  0  0  0  0  0  0  0  0  0
    3.4827   -7.4653   19.9411 C   0  0  0  0  0  0  0  0  0  0  0  0
    2.5813   -8.5447   20.2670 C   0  0  0  0  0  0  0  0  0  0  0  0
    2.9790  -10.4563   19.7755 H   0  0  0  0  0  0  0  0  0  0  0  0
    2.3075  -11.7647   19.6143 H   0  0  0  0  0  0  0  0  0  0  0  0
    1.2058  -10.2562   20.0138 H   0  0  0  0  0  0  0  0  0  0  0  0
    3.3358  -12.9143   21.9091 H   0  0  0  0  0  0  0  0  0  0  0  0
    2.9685  -12.0386   23.2045 H   0  0  0  0  0  0  0  0  0  0  0  0
    2.0406  -13.0026   21.7683 H   0  0  0  0  0  0  0  0  0  0  0  0
   -1.0166  -11.8316   23.9447 H   0  0  0  0  0  0  0  0  0  0  0  0
   -2.1304  -12.9970   26.4218 H   0  0  0  0  0  0  0  0  0  0  0  0
   -4.0181  -18.9915   24.5735 H   0  0  0  0  0  0  0  0  0  0  0  0
   -2.4245  -19.1632   23.8377 H   0  0  0  0  0  0  0  0  0  0  0  0
   -2.8833  -20.0974   25.1122 H   0  0  0  0  0  0  0  0  0  0  0  0
   -3.4641  -18.7845   27.7477 H   0  0  0  0  0  0  0  0  0  0  0  0
   -4.5142  -18.8877   26.4302 H   0  0  0  0  0  0  0  0  0  0  0  0
   -4.2550  -17.3110   27.1179 H   0  0  0  0  0  0  0  0  0  0  0  0
   -3.0747  -20.4985   26.8734 H   0  0  0  0  0  0  0  0  0  0  0  0
   -2.4545  -16.0013   23.9323 H   0  0  0  0  0  0  0  0  0  0  0  0
    4.4464   -9.8700   22.7152 H   0  0  0  0  0  0  0  0  0  0  0  0
    5.7515   -8.0799   22.2810 H   0  0  0  0  0  0  0  0  0  0  0  0
    5.2826   -6.4338   20.4805 H   0  0  0  0  0  0  0  0  0  0  0  0
    3.2696   -6.8510   19.0691 H   0  0  0  0  0  0  0  0  0  0  0  0
    1.8314   -8.5918   19.4590 H   0  0  0  0  0  0  0  0  0  0  0  0
  1  2  1  0
  2  3  1  0
  2  4  1  0
  4  5  2  0
  4  6  1  0
  6  7  1  0
  7  8  1  0
  8  9  2  0
  9 10  1  0
 10 11  1  0
 11 12  1  0
 11 13  1  0
 11 14  1  0
 14 15  2  0
 14 16  1  0
 10 17  1  0
  2 18  1  0
 18 19  2  0
 19 20  1  0
 20 21  2  0
 21 22  1  0
 22 23  2  0
 17  7  2  0
 23 18  1  0
  1 24  1  0
  1 25  1  0
  1 26  1  0
  3 27  1  0
  3 28  1  0
  3 29  1  0
  6 30  1  0
  8 31  1  0
 12 32  1  0
 12 33  1  0
 12 34  1  0
 13 35  1  0
 13 36  1  0
 13 37  1  0
 16 38  1  0
 17 39  1  0
 19 40  1  0
 20 41  1  0
 21 42  1  0
 22 43  1  0
 23 44  1  0
M  END
>  <Energy>  (437) 
1061.095097136882

>  <compound_id>  (437) 
51871

>  <target_id>  (437) 
1

>  <reference_id>  (437) 
96

>  <inspiration_ids>  (437) 
[96, 66]

>  <energy_score>  (437) 
946.0195264471813

>  <distance_score>  (437) 
13.298557559747557

>  <path>  (437) 
/opt/xchem-fragalysis-2/maxwin/BulkDock/SCRATCH/511025/C51871-P96/C51871-P96.minimised.mol

>  <scratch_subdir>  (437) 
/opt/xchem-fragalysis-2/maxwin/BulkDock/SCRATCH/511025/C51871-P96

>  <fragmenstein_runtime>  (437) 
17.661870002746582

>  <fragmenstein_outcome>  (437) 
too moved

>  <fragmenstein_mode>  (437) 
expansion

>  <fragmenstein_error>  (437) 


$$$$
C51871-P66
     RDKit          3D

 44 45  0  0  0  0  0  0  0  0999 V2000
    6.7132  -10.9464   21.8764 C   0  0  0  0  0  0  0  0  0  0  0  0
    5.2789  -11.1024   21.1759 C   0  0  0  0  0  0  0  0  0  0  0  0
    5.4730  -12.2692   20.1759 C   0  0  0  0  0  0  0  0  0  0  0  0
    3.9135  -11.0129   22.4772 C   0  0  0  0  0  0  0  0  0  0  0  0
    3.8306   -9.8691   22.9019 O   0  0  0  0  0  0  0  0  0  0  0  0
    3.0322  -12.5573   23.0161 N   0  0  0  0  0  0  0  0  0  0  0  0
    1.8611  -12.9070   24.4142 C   0  0  0  0  0  0  0  0  0  0  0  0
    0.3729  -14.1045   24.2656 C   0  0  0  0  0  0  0  0  0  0  0  0
   -0.9426  -13.6856   25.2941 N   0  0  0  0  0  0  0  0  0  0  0  0
    0.1610  -13.7366   26.8029 N   0  0  0  0  0  0  0  0  0  0  0  0
   -0.5364  -14.9967   28.2324 C   0  0  0  0  0  0  0  0  0  0  0  0
   -1.0979  -15.0769   29.9581 C   0  0  0  0  0  0  0  0  0  0  0  0
    0.8617  -16.1840   28.7157 C   0  0  0  0  0  0  0  0  0  0  0  0
   -1.7487  -16.1962   28.0558 C   0  0  0  0  0  0  0  0  0  0  0  0
   -2.9021  -16.1361   28.4328 O   0  0  0  0  0  0  0  0  0  0  0  0
   -1.4482  -17.4205   27.5381 O   0  0  0  0  0  0  0  0  0  0  0  0
    1.4224  -13.0440   26.0497 C   0  0  0  0  0  0  0  0  0  0  0  0
    5.2958   -9.6553   20.3554 C   0  0  0  0  0  0  0  0  0  0  0  0
    5.0432   -9.5692   18.9739 C   0  0  0  0  0  0  0  0  0  0  0  0
    5.1407   -8.3463   18.2860 C   0  0  0  0  0  0  0  0  0  0  0  0
    5.5342   -7.1824   18.9429 C   0  0  0  0  0  0  0  0  0  0  0  0
    5.8064   -7.2321   20.3029 C   0  0  0  0  0  0  0  0  0  0  0  0
    5.6664   -8.4445   20.9991 C   0  0  0  0  0  0  0  0  0  0  0  0
    7.2045  -11.9056   22.0724 H   0  0  0  0  0  0  0  0  0  0  0  0
    6.6302  -10.4205   22.8344 H   0  0  0  0  0  0  0  0  0  0  0  0
    7.4369  -10.4135   21.2455 H   0  0  0  0  0  0  0  0  0  0  0  0
    6.3164  -12.0598   19.5039 H   0  0  0  0  0  0  0  0  0  0  0  0
    5.7310  -13.2014   20.6710 H   0  0  0  0  0  0  0  0  0  0  0  0
    4.6224  -12.4739   19.5265 H   0  0  0  0  0  0  0  0  0  0  0  0
    3.2486  -13.3195   22.4130 H   0  0  0  0  0  0  0  0  0  0  0  0
   -0.0672  -14.1441   23.2665 H   0  0  0  0  0  0  0  0  0  0  0  0
   -1.2273  -16.1360   30.2441 H   0  0  0  0  0  0  0  0  0  0  0  0
   -0.4024  -14.7358   30.7232 H   0  0  0  0  0  0  0  0  0  0  0  0
   -2.0997  -14.6423   30.1025 H   0  0  0  0  0  0  0  0  0  0  0  0
    1.8448  -15.8431   28.3801 H   0  0  0  0  0  0  0  0  0  0  0  0
    0.7152  -17.1880   28.2907 H   0  0  0  0  0  0  0  0  0  0  0  0
    0.8497  -16.3813   29.7916 H   0  0  0  0  0  0  0  0  0  0  0  0
   -2.3486  -17.8343   27.4958 H   0  0  0  0  0  0  0  0  0  0  0  0
    1.2456  -12.0733   26.4934 H   0  0  0  0  0  0  0  0  0  0  0  0
    4.7421  -10.4431   18.4029 H   0  0  0  0  0  0  0  0  0  0  0  0
    4.8966   -8.3123   17.2258 H   0  0  0  0  0  0  0  0  0  0  0  0
    5.5781   -6.2447   18.3989 H   0  0  0  0  0  0  0  0  0  0  0  0
    6.0732   -6.3321   20.8490 H   0  0  0  0  0  0  0  0  0  0  0  0
    5.8363   -8.4298   22.0744 H   0  0  0  0  0  0  0  0  0  0  0  0
  1  2  1  0
  2  3  1  0
  2  4  1  0
  4  5  2  0
  4  6  1  0
  6  7  1  0
  7  8  1  0
  8  9  2  0
  9 10  1  0
 10 11  1  0
 11 12  1  0
 11 13  1  0
 11 14  1  0
 14 15  2  0
 14 16  1  0
 10 17  1  0
  2 18  1  0
 18 19  2  0
 19 20  1  0
 20 21  2  0
 21 22  1  0
 22 23  2  0
 17  7  2  0
 23 18  1  0
  1 24  1  0
  1 25  1  0
  1 26  1  0
  3 27  1  0
  3 28  1  0
  3 29  1  0
  6 30  1  0
  8 31  1  0
 12 32  1  0
 12 33  1  0
 12 34  1  0
 13 35  1  0
 13 36  1  0
 13 37  1  0
 16 38  1  0
 17 39  1  0
 19 40  1  0
 20 41  1  0
 21 42  1  0
 22 43  1  0
 23 44  1  0
M  END
>  <Energy>  (438) 
820.13727860447909

>  <compound_id>  (438) 
51871

>  <target_id>  (438) 
1

>  <reference_id>  (438) 
66

>  <inspiration_ids>  (438) 
[96, 66]

>  <energy_score>  (438) 
705.0617079147582

>  <distance_score>  (438) 
13.63015476009234

>  <path>  (438) 
/opt/xchem-fragalysis-2/maxwin/BulkDock/SCRATCH/511025/C51871-P66/C51871-P66.minimised.mol

>  <scratch_subdir>  (438) 
/opt/xchem-fragalysis-2/maxwin/BulkDock/SCRATCH/511025/C51871-P66

>  <fragmenstein_runtime>  (438) 
24.067604064941406

>  <fragmenstein_outcome>  (438) 
too moved

>  <fragmenstein_mode>  (438) 
expansion

>  <fragmenstein_error>  (438) 


$$$$
C23238-P82
     RDKit          3D

 38 39  0  0  0  0  0  0  0  0999 V2000
  -10.7301  -12.8706   20.1976 C   0  0  0  0  0  0  0  0  0  0  0  0
   -9.2913  -13.2872   20.3150 N   0  0  0  0  0  0  0  0  0  0  0  0
   -9.0857  -12.0269   19.4314 C   0  0  0  0  0  0  0  0  0  0  0  0
   -9.0729  -12.3058   17.8984 C   0  0  0  0  0  0  0  0  0  0  0  0
   -8.5212  -11.2929   17.0071 N   0  0  0  0  0  0  0  0  0  0  0  0
   -8.8692   -9.9054   16.8204 C   0  0  0  0  0  0  0  0  0  0  0  0
   -9.6487   -9.2084   17.4080 O   0  0  0  0  0  0  0  0  0  0  0  0
   -8.1512   -9.3223   15.5796 C   0  0  0  0  0  0  0  0  0  0  0  0
   -6.8409   -8.6835   15.8821 C   0  0  0  0  0  0  0  0  0  0  0  0
   -5.7130   -9.3163   16.1004 N   0  0  0  0  0  0  0  0  0  0  0  0
   -4.8077   -8.3524   16.4018 C   0  0  0  0  0  0  0  0  0  0  0  0
   -5.3429   -7.0983   16.2318 C   0  0  0  0  0  0  0  0  0  0  0  0
   -6.6445   -7.3229   15.9002 N   0  0  0  0  0  0  0  0  0  0  0  0
   -8.9604  -13.5311   21.6884 C   0  0  0  0  0  0  0  0  0  0  0  0
   -8.5219  -12.7919   22.5291 O   0  0  0  0  0  0  0  0  0  0  0  0
   -9.0981  -14.9838   22.1016 C   0  0  0  0  0  0  0  0  0  0  0  0
   -9.4020  -16.0119   21.2058 C   0  0  0  0  0  0  0  0  0  0  0  0
   -9.2837  -17.3437   21.5979 C   0  0  0  0  0  0  0  0  0  0  0  0
   -8.8938  -17.6139   22.8927 C   0  0  0  0  0  0  0  0  0  0  0  0
   -8.6957  -16.6678   23.8321 N   0  0  0  0  0  0  0  0  0  0  0  0
   -8.7789  -15.3757   23.4070 C   0  0  0  0  0  0  0  0  0  0  0  0
  -11.2997  -13.6623   20.7079 H   0  0  0  0  0  0  0  0  0  0  0  0
  -11.1595  -12.8756   19.1907 H   0  0  0  0  0  0  0  0  0  0  0  0
  -10.9790  -11.9770   20.7911 H   0  0  0  0  0  0  0  0  0  0  0  0
   -8.0428  -11.7825   19.6753 H   0  0  0  0  0  0  0  0  0  0  0  0
   -9.5859  -11.0899   19.7288 H   0  0  0  0  0  0  0  0  0  0  0  0
  -10.0894  -12.4745   17.5315 H   0  0  0  0  0  0  0  0  0  0  0  0
   -8.5143  -13.2252   17.6997 H   0  0  0  0  0  0  0  0  0  0  0  0
   -7.7574  -11.5307   16.3786 H   0  0  0  0  0  0  0  0  0  0  0  0
   -8.8336   -8.5981   15.1168 H   0  0  0  0  0  0  0  0  0  0  0  0
   -8.0104  -10.1125   14.8323 H   0  0  0  0  0  0  0  0  0  0  0  0
   -3.8406   -8.6453   16.7801 H   0  0  0  0  0  0  0  0  0  0  0  0
   -4.9697   -6.0992   16.3953 H   0  0  0  0  0  0  0  0  0  0  0  0
   -7.3617   -6.6224   15.7653 H   0  0  0  0  0  0  0  0  0  0  0  0
   -9.6544  -15.7932   20.1717 H   0  0  0  0  0  0  0  0  0  0  0  0
   -9.4610  -18.1528   20.8960 H   0  0  0  0  0  0  0  0  0  0  0  0
   -8.7426  -18.6399   23.1916 H   0  0  0  0  0  0  0  0  0  0  0  0
   -8.5290  -14.6348   24.1642 H   0  0  0  0  0  0  0  0  0  0  0  0
  1  2  1  0
  2  3  1  0
  3  4  1  0
  4  5  1  0
  5  6  1  0
  6  7  2  0
  6  8  1  0
  8  9  1  0
  9 10  2  0
 10 11  1  0
 11 12  2  0
 12 13  1  0
  2 14  1  0
 14 15  2  0
 14 16  1  0
 16 17  2  0
 17 18  1  0
 18 19  2  0
 19 20  1  0
 20 21  2  0
 13  9  1  0
 21 16  1  0
  1 22  1  0
  1 23  1  0
  1 24  1  0
  3 25  1  0
  3 26  1  0
  4 27  1  0
  4 28  1  0
  5 29  1  0
  8 30  1  0
  8 31  1  0
 11 32  1  0
 12 33  1  0
 13 34  1  0
 17 35  1  0
 18 36  1  0
 19 37  1  0
 21 38  1  0
M  END
>  <Energy>  (439) 
112.63195416883718

>  <compound_id>  (439) 
23238

>  <target_id>  (439) 
1

>  <reference_id>  (439) 
82

>  <inspiration_ids>  (439) 
[82, 114]

>  <energy_score>  (439) 
52.41678563162168

>  <distance_score>  (439) 
15.819931527801279

>  <path>  (439) 
/opt/xchem-fragalysis-2/maxwin/BulkDock/SCRATCH/511025/C23238-P82/C23238-P82.minimised.mol

>  <scratch_subdir>  (439) 
/opt/xchem-fragalysis-2/maxwin/BulkDock/SCRATCH/511025/C23238-P82

>  <fragmenstein_runtime>  (439) 
43.284783601760864

>  <fragmenstein_outcome>  (439) 
too moved

>  <fragmenstein_mode>  (439) 
expansion

>  <fragmenstein_error>  (439) 


$$$$
C23238-P114
     RDKit          3D

 38 39  0  0  0  0  0  0  0  0999 V2000
   -3.9355  -17.7707   18.7665 C   0  0  0  0  0  0  0  0  0  0  0  0
   -3.3210  -17.8996   20.1204 N   0  0  0  0  0  0  0  0  0  0  0  0
   -2.3599  -16.7297   19.5425 C   0  0  0  0  0  0  0  0  0  0  0  0
   -1.9058  -15.1578   18.7066 C   0  0  0  0  0  0  0  0  0  0  0  0
   -1.9924  -13.4373   18.3257 N   0  0  0  0  0  0  0  0  0  0  0  0
   -2.1334  -12.2157   19.2426 C   0  0  0  0  0  0  0  0  0  0  0  0
   -2.1378  -12.1409   20.4461 O   0  0  0  0  0  0  0  0  0  0  0  0
   -2.4165  -10.8869   18.5549 C   0  0  0  0  0  0  0  0  0  0  0  0
   -2.0506   -9.6841   19.4200 C   0  0  0  0  0  0  0  0  0  0  0  0
   -1.1841   -8.7467   19.0782 N   0  0  0  0  0  0  0  0  0  0  0  0
   -0.4052   -8.5904   20.2293 C   0  0  0  0  0  0  0  0  0  0  0  0
   -1.0628   -9.0730   21.3190 C   0  0  0  0  0  0  0  0  0  0  0  0
   -2.1790   -9.6666   20.7974 N   0  0  0  0  0  0  0  0  0  0  0  0
   -4.3538  -17.8626   21.1462 C   0  0  0  0  0  0  0  0  0  0  0  0
   -4.8177  -16.9330   21.7598 O   0  0  0  0  0  0  0  0  0  0  0  0
   -4.9385  -19.2027   21.4867 C   0  0  0  0  0  0  0  0  0  0  0  0
   -6.3289  -19.3886   21.5027 C   0  0  0  0  0  0  0  0  0  0  0  0
   -6.8625  -20.6483   21.7904 C   0  0  0  0  0  0  0  0  0  0  0  0
   -5.9886  -21.6736   22.1171 C   0  0  0  0  0  0  0  0  0  0  0  0
   -4.6493  -21.5103   22.2027 N   0  0  0  0  0  0  0  0  0  0  0  0
   -4.1552  -20.2818   21.8711 C   0  0  0  0  0  0  0  0  0  0  0  0
   -4.1838  -16.8094   18.3352 H   0  0  0  0  0  0  0  0  0  0  0  0
   -4.9109  -18.2772   18.8161 H   0  0  0  0  0  0  0  0  0  0  0  0
   -3.3747  -18.3993   18.0615 H   0  0  0  0  0  0  0  0  0  0  0  0
   -1.7642  -17.4376   18.9457 H   0  0  0  0  0  0  0  0  0  0  0  0
   -1.6261  -16.6794   20.3362 H   0  0  0  0  0  0  0  0  0  0  0  0
   -2.0698  -15.3720   17.6677 H   0  0  0  0  0  0  0  0  0  0  0  0
   -0.9612  -15.2117   19.1193 H   0  0  0  0  0  0  0  0  0  0  0  0
   -1.9477  -13.1283   17.3591 H   0  0  0  0  0  0  0  0  0  0  0  0
   -1.7607  -10.8245   17.7251 H   0  0  0  0  0  0  0  0  0  0  0  0
   -3.4345  -10.8858   18.1991 H   0  0  0  0  0  0  0  0  0  0  0  0
    0.5493   -8.1081   20.1823 H   0  0  0  0  0  0  0  0  0  0  0  0
   -0.8026   -9.0962   22.3562 H   0  0  0  0  0  0  0  0  0  0  0  0
   -2.7633  -10.3278   21.2904 H   0  0  0  0  0  0  0  0  0  0  0  0
   -6.9899  -18.5634   21.2519 H   0  0  0  0  0  0  0  0  0  0  0  0
   -7.9318  -20.8293   21.7504 H   0  0  0  0  0  0  0  0  0  0  0  0
   -6.3536  -22.6742   22.3348 H   0  0  0  0  0  0  0  0  0  0  0  0
   -3.0732  -20.1923   21.9251 H   0  0  0  0  0  0  0  0  0  0  0  0
  1  2  1  0
  2  3  1  0
  3  4  1  0
  4  5  1  0
  5  6  1  0
  6  7  2  0
  6  8  1  0
  8  9  1  0
  9 10  2  0
 10 11  1  0
 11 12  2  0
 12 13  1  0
  2 14  1  0
 14 15  2  0
 14 16  1  0
 16 17  2  0
 17 18  1  0
 18 19  2  0
 19 20  1  0
 20 21  2  0
 13  9  1  0
 21 16  1  0
  1 22  1  0
  1 23  1  0
  1 24  1  0
  3 25  1  0
  3 26  1  0
  4 27  1  0
  4 28  1  0
  5 29  1  0
  8 30  1  0
  8 31  1  0
 11 32  1  0
 12 33  1  0
 13 34  1  0
 17 35  1  0
 18 36  1  0
 19 37  1  0
 21 38  1  0
M  END
>  <Energy>  (440) 
291.15376367248882

>  <compound_id>  (440) 
23238

>  <target_id>  (440) 
1

>  <reference_id>  (440) 
114

>  <inspiration_ids>  (440) 
[82, 114]

>  <energy_score>  (440) 
230.93859513527264

>  <distance_score>  (440) 
14.300742163241807

>  <path>  (440) 
/opt/xchem-fragalysis-2/maxwin/BulkDock/SCRATCH/511025/C23238-P114/C23238-P114.minimised.mol

>  <scratch_subdir>  (440) 
/opt/xchem-fragalysis-2/maxwin/BulkDock/SCRATCH/511025/C23238-P114

>  <fragmenstein_runtime>  (440) 
26.767029285430908

>  <fragmenstein_outcome>  (440) 
too moved

>  <fragmenstein_mode>  (440) 
expansion

>  <fragmenstein_error>  (440) 


$$$$
C23239-P82
     RDKit          3D

 45 47  0  0  0  0  0  0  0  0999 V2000
   -3.1044  -15.1783   25.0675 C   0  0  0  0  0  0  0  0  0  0  0  0
   -1.9128  -15.7838   25.6666 N   0  0  0  0  0  0  0  0  0  0  0  0
   -2.2283  -16.2884   27.0021 C   0  0  0  0  0  0  0  0  0  0  0  0
   -2.1506  -15.7537   28.0805 O   0  0  0  0  0  0  0  0  0  0  0  0
   -2.8557  -17.6511   27.1123 C   0  0  0  0  0  0  0  0  0  0  0  0
   -4.1315  -17.7348   27.7203 C   0  0  0  0  0  0  0  0  0  0  0  0
   -4.7454  -18.9691   27.9583 C   0  0  0  0  0  0  0  0  0  0  0  0
   -4.0578  -20.1065   27.5842 C   0  0  0  0  0  0  0  0  0  0  0  0
   -2.8326  -20.0749   27.0061 N   0  0  0  0  0  0  0  0  0  0  0  0
   -2.2530  -18.8513   26.8021 C   0  0  0  0  0  0  0  0  0  0  0  0
   -1.1763  -14.2513   25.1555 C   0  0  0  0  0  0  0  0  0  0  0  0
   -0.2581  -13.8361   23.3891 C   0  0  0  0  0  0  0  0  0  0  0  0
    0.2889  -11.9922   22.7592 N   0  0  0  0  0  0  0  0  0  0  0  0
   -0.6020  -10.7842   21.7912 C   0  0  0  0  0  0  0  0  0  0  0  0
   -1.7013  -10.9041   21.2542 O   0  0  0  0  0  0  0  0  0  0  0  0
    0.0730   -9.3548   21.7171 C   0  0  0  0  0  0  0  0  0  0  0  0
   -0.2787   -8.1400   20.8559 C   0  0  0  0  0  0  0  0  0  0  0  0
    0.0479   -6.8925   21.1894 N   0  0  0  0  0  0  0  0  0  0  0  0
   -0.0049   -6.1458   20.0414 C   0  0  0  0  0  0  0  0  0  0  0  0
   -0.3996   -6.9280   18.9875 C   0  0  0  0  0  0  0  0  0  0  0  0
   -0.6103   -8.1694   19.5254 N   0  0  0  0  0  0  0  0  0  0  0  0
   -1.5793  -13.0785   26.2988 C   0  0  0  0  0  0  0  0  0  0  0  0
   -2.6464  -13.1945   27.3921 C   0  0  0  0  0  0  0  0  0  0  0  0
   -2.8285  -12.1720   26.3316 C   0  0  0  0  0  0  0  0  0  0  0  0
   -3.9316  -15.8496   25.3523 H   0  0  0  0  0  0  0  0  0  0  0  0
   -3.5197  -14.2454   25.4002 H   0  0  0  0  0  0  0  0  0  0  0  0
   -3.1308  -15.3294   23.9934 H   0  0  0  0  0  0  0  0  0  0  0  0
   -4.6320  -16.8207   28.0351 H   0  0  0  0  0  0  0  0  0  0  0  0
   -5.7189  -19.0326   28.4296 H   0  0  0  0  0  0  0  0  0  0  0  0
   -4.4723  -21.0983   27.7403 H   0  0  0  0  0  0  0  0  0  0  0  0
   -1.2428  -18.8874   26.4091 H   0  0  0  0  0  0  0  0  0  0  0  0
   -0.2260  -14.3659   25.6765 H   0  0  0  0  0  0  0  0  0  0  0  0
   -0.4953  -14.4818   22.5440 H   0  0  0  0  0  0  0  0  0  0  0  0
    0.7072  -14.1831   23.7748 H   0  0  0  0  0  0  0  0  0  0  0  0
    1.1405  -11.5676   23.1429 H   0  0  0  0  0  0  0  0  0  0  0  0
    1.0867   -9.5112   21.3871 H   0  0  0  0  0  0  0  0  0  0  0  0
   -0.0444   -8.9125   22.7044 H   0  0  0  0  0  0  0  0  0  0  0  0
    0.2484   -5.0943   20.0409 H   0  0  0  0  0  0  0  0  0  0  0  0
   -0.5496   -6.7257   17.9385 H   0  0  0  0  0  0  0  0  0  0  0  0
   -0.7658   -9.0365   19.0259 H   0  0  0  0  0  0  0  0  0  0  0  0
   -0.6537  -12.6680   26.7132 H   0  0  0  0  0  0  0  0  0  0  0  0
   -3.4252  -13.9412   27.4395 H   0  0  0  0  0  0  0  0  0  0  0  0
   -2.3570  -12.8672   28.3880 H   0  0  0  0  0  0  0  0  0  0  0  0
   -2.8029  -11.1563   26.7114 H   0  0  0  0  0  0  0  0  0  0  0  0
   -3.6259  -12.2885   25.6079 H   0  0  0  0  0  0  0  0  0  0  0  0
  1  2  1  0
  2  3  1  0
  3  4  2  0
  3  5  1  0
  5  6  2  0
  6  7  1  0
  7  8  2  0
  8  9  1  0
  9 10  2  0
  2 11  1  0
 11 12  1  0
 12 13  1  0
 13 14  1  0
 14 15  2  0
 14 16  1  0
 16 17  1  0
 17 18  2  0
 18 19  1  0
 19 20  2  0
 20 21  1  0
 11 22  1  0
 22 23  1  0
 23 24  1  0
 10  5  1  0
 21 17  1  0
 24 22  1  0
  1 25  1  0
  1 26  1  0
  1 27  1  0
  6 28  1  0
  7 29  1  0
  8 30  1  0
 10 31  1  0
 11 32  1  0
 12 33  1  0
 12 34  1  0
 13 35  1  0
 16 36  1  0
 16 37  1  0
 19 38  1  0
 20 39  1  0
 21 40  1  0
 22 41  1  0
 23 42  1  0
 23 43  1  0
 24 44  1  0
 24 45  1  0
M  END
>  <Energy>  (441) 
405.08418498478852

>  <compound_id>  (441) 
23239

>  <target_id>  (441) 
1

>  <reference_id>  (441) 
82

>  <inspiration_ids>  (441) 
[82, 114]

>  <energy_score>  (441) 
299.80305137492815

>  <distance_score>  (441) 
12.904956960429816

>  <path>  (441) 
/opt/xchem-fragalysis-2/maxwin/BulkDock/SCRATCH/511025/C23239-P82/C23239-P82.minimised.mol

>  <scratch_subdir>  (441) 
/opt/xchem-fragalysis-2/maxwin/BulkDock/SCRATCH/511025/C23239-P82

>  <fragmenstein_runtime>  (441) 
56.3357138633728

>  <fragmenstein_outcome>  (441) 
too moved

>  <fragmenstein_mode>  (441) 
expansion

>  <fragmenstein_error>  (441) 


$$$$
C23239-P114
     RDKit          3D

 45 47  0  0  0  0  0  0  0  0999 V2000
   -2.3709  -17.3777   27.7471 C   0  0  0  0  0  0  0  0  0  0  0  0
   -1.8648  -17.6461   29.1476 N   0  0  0  0  0  0  0  0  0  0  0  0
   -2.9319  -17.5395   30.0813 C   0  0  0  0  0  0  0  0  0  0  0  0
   -3.3282  -16.5956   30.7096 O   0  0  0  0  0  0  0  0  0  0  0  0
   -3.5647  -18.8811   30.3558 C   0  0  0  0  0  0  0  0  0  0  0  0
   -3.2000  -20.0518   29.6788 C   0  0  0  0  0  0  0  0  0  0  0  0
   -3.7130  -21.2795   30.0750 C   0  0  0  0  0  0  0  0  0  0  0  0
   -4.5741  -21.2988   31.1495 C   0  0  0  0  0  0  0  0  0  0  0  0
   -4.9990  -20.2029   31.8089 N   0  0  0  0  0  0  0  0  0  0  0  0
   -4.4789  -19.0170   31.3972 C   0  0  0  0  0  0  0  0  0  0  0  0
   -0.7975  -16.6254   28.7217 C   0  0  0  0  0  0  0  0  0  0  0  0
   -1.1018  -15.0998   28.9424 C   0  0  0  0  0  0  0  0  0  0  0  0
   -0.1979  -14.2773   28.1409 N   0  0  0  0  0  0  0  0  0  0  0  0
   -0.2604  -13.8764   26.7369 C   0  0  0  0  0  0  0  0  0  0  0  0
   -1.1093  -14.0569   25.9152 O   0  0  0  0  0  0  0  0  0  0  0  0
    1.0654  -13.0936   26.4235 C   0  0  0  0  0  0  0  0  0  0  0  0
    1.9884  -13.0776   24.9131 C   0  0  0  0  0  0  0  0  0  0  0  0
    3.2315  -13.6796   24.8122 N   0  0  0  0  0  0  0  0  0  0  0  0
    3.1592  -13.8924   23.5580 C   0  0  0  0  0  0  0  0  0  0  0  0
    3.1484  -12.6174   23.1001 C   0  0  0  0  0  0  0  0  0  0  0  0
    2.1396  -12.1692   23.8809 N   0  0  0  0  0  0  0  0  0  0  0  0
    0.4170  -17.0861   29.5722 C   0  0  0  0  0  0  0  0  0  0  0  0
    1.3837  -16.1940   30.3231 C   0  0  0  0  0  0  0  0  0  0  0  0
    0.3923  -17.0284   31.0841 C   0  0  0  0  0  0  0  0  0  0  0  0
   -1.7418  -17.8311   26.9663 H   0  0  0  0  0  0  0  0  0  0  0  0
   -2.7129  -16.3619   27.5213 H   0  0  0  0  0  0  0  0  0  0  0  0
   -3.3052  -17.9532   27.6570 H   0  0  0  0  0  0  0  0  0  0  0  0
   -2.4743  -20.0329   28.8715 H   0  0  0  0  0  0  0  0  0  0  0  0
   -3.4185  -22.1992   29.5821 H   0  0  0  0  0  0  0  0  0  0  0  0
   -4.9516  -22.2446   31.5022 H   0  0  0  0  0  0  0  0  0  0  0  0
   -4.8043  -18.1546   31.9743 H   0  0  0  0  0  0  0  0  0  0  0  0
   -0.3658  -16.7841   27.7247 H   0  0  0  0  0  0  0  0  0  0  0  0
   -2.1134  -14.8295   28.6299 H   0  0  0  0  0  0  0  0  0  0  0  0
   -0.9988  -14.7975   29.9879 H   0  0  0  0  0  0  0  0  0  0  0  0
    0.7084  -14.0281   28.5166 H   0  0  0  0  0  0  0  0  0  0  0  0
    1.7916  -13.5426   27.1150 H   0  0  0  0  0  0  0  0  0  0  0  0
    0.8763  -12.0591   26.7328 H   0  0  0  0  0  0  0  0  0  0  0  0
    3.4186  -14.8689   23.1929 H   0  0  0  0  0  0  0  0  0  0  0  0
    3.5298  -12.2206   22.1889 H   0  0  0  0  0  0  0  0  0  0  0  0
    1.4135  -11.5550   23.5603 H   0  0  0  0  0  0  0  0  0  0  0  0
    0.8376  -17.9953   29.1449 H   0  0  0  0  0  0  0  0  0  0  0  0
    1.2549  -15.1224   30.3760 H   0  0  0  0  0  0  0  0  0  0  0  0
    2.4253  -16.4997   30.3530 H   0  0  0  0  0  0  0  0  0  0  0  0
    0.7583  -17.8937   31.6261 H   0  0  0  0  0  0  0  0  0  0  0  0
   -0.4306  -16.5239   31.5785 H   0  0  0  0  0  0  0  0  0  0  0  0
  1  2  1  0
  2  3  1  0
  3  4  2  0
  3  5  1  0
  5  6  2  0
  6  7  1  0
  7  8  2  0
  8  9  1  0
  9 10  2  0
  2 11  1  0
 11 12  1  0
 12 13  1  0
 13 14  1  0
 14 15  2  0
 14 16  1  0
 16 17  1  0
 17 18  2  0
 18 19  1  0
 19 20  2  0
 20 21  1  0
 11 22  1  0
 22 23  1  0
 23 24  1  0
 10  5  1  0
 21 17  1  0
 24 22  1  0
  1 25  1  0
  1 26  1  0
  1 27  1  0
  6 28  1  0
  7 29  1  0
  8 30  1  0
 10 31  1  0
 11 32  1  0
 12 33  1  0
 12 34  1  0
 13 35  1  0
 16 36  1  0
 16 37  1  0
 19 38  1  0
 20 39  1  0
 21 40  1  0
 22 41  1  0
 23 42  1  0
 23 43  1  0
 24 44  1  0
 24 45  1  0
M  END
>  <Energy>  (442) 
222.5677101835071

>  <compound_id>  (442) 
23239

>  <target_id>  (442) 
1

>  <reference_id>  (442) 
114

>  <inspiration_ids>  (442) 
[82, 114]

>  <energy_score>  (442) 
117.28657657365306

>  <distance_score>  (442) 
13.321396257485254

>  <path>  (442) 
/opt/xchem-fragalysis-2/maxwin/BulkDock/SCRATCH/511025/C23239-P114/C23239-P114.minimised.mol

>  <scratch_subdir>  (442) 
/opt/xchem-fragalysis-2/maxwin/BulkDock/SCRATCH/511025/C23239-P114

>  <fragmenstein_runtime>  (442) 
79.31949186325073

>  <fragmenstein_outcome>  (442) 
too moved

>  <fragmenstein_mode>  (442) 
expansion

>  <fragmenstein_error>  (442) 


$$$$
C52670-P82
     RDKit          3D

 40 41  0  0  0  0  0  0  0  0999 V2000
   -2.0075  -18.7872   26.1195 C   0  0  0  0  0  0  0  0  0  0  0  0
   -0.4623  -19.5373   26.4163 C   0  0  0  0  0  0  0  0  0  0  0  0
   -0.1680  -18.1055   26.8562 C   0  0  0  0  0  0  0  0  0  0  0  0
    0.7018  -20.0041   24.5463 N   0  0  0  0  0  0  0  0  0  0  0  0
   -0.3574  -21.8685   24.2684 C   0  0  0  0  0  0  0  0  0  0  0  0
    0.3926  -23.6230   24.8144 C   0  0  0  0  0  0  0  0  0  0  0  0
    0.7162  -24.8497   23.9480 C   0  0  0  0  0  0  0  0  0  0  0  0
    0.9983  -26.1998   24.2630 C   0  0  0  0  0  0  0  0  0  0  0  0
    1.3807  -26.4442   25.5264 C   0  0  0  0  0  0  0  0  0  0  0  0
    1.4708  -25.3084   26.2763 C   0  0  0  0  0  0  0  0  0  0  0  0
    0.9218  -23.9939   26.0096 N   0  0  0  0  0  0  0  0  0  0  0  0
    0.6384  -19.1029   23.9104 C   0  0  0  0  0  0  0  0  0  0  0  0
   -0.0736  -18.8074   23.0428 O   0  0  0  0  0  0  0  0  0  0  0  0
    2.3145  -18.1901   24.6540 C   0  0  0  0  0  0  0  0  0  0  0  0
    3.4429  -17.3914   23.8876 C   0  0  0  0  0  0  0  0  0  0  0  0
    4.0924  -15.7669   23.6718 C   0  0  0  0  0  0  0  0  0  0  0  0
    3.3038  -14.6940   23.3193 C   0  0  0  0  0  0  0  0  0  0  0  0
    3.4304  -13.7374   24.2702 N   0  0  0  0  0  0  0  0  0  0  0  0
    4.2185  -14.3482   25.2217 C   0  0  0  0  0  0  0  0  0  0  0  0
    4.8855  -15.2925   24.6533 N   0  0  0  0  0  0  0  0  0  0  0  0
   -2.4966  -18.3618   26.9704 H   0  0  0  0  0  0  0  0  0  0  0  0
   -2.0374  -17.8881   25.5162 H   0  0  0  0  0  0  0  0  0  0  0  0
   -2.6202  -19.4411   25.5950 H   0  0  0  0  0  0  0  0  0  0  0  0
   -0.8164  -20.2748   27.2428 H   0  0  0  0  0  0  0  0  0  0  0  0
    0.8130  -17.8119   27.2441 H   0  0  0  0  0  0  0  0  0  0  0  0
   -0.8856  -17.6385   27.4995 H   0  0  0  0  0  0  0  0  0  0  0  0
   -0.3507  -17.7993   25.8910 H   0  0  0  0  0  0  0  0  0  0  0  0
   -1.3655  -21.6269   23.8681 H   0  0  0  0  0  0  0  0  0  0  0  0
   -0.0201  -21.9805   23.2105 H   0  0  0  0  0  0  0  0  0  0  0  0
    1.1691  -24.6450   22.9595 H   0  0  0  0  0  0  0  0  0  0  0  0
    1.1380  -26.9385   23.4820 H   0  0  0  0  0  0  0  0  0  0  0  0
    1.7426  -27.4013   25.8681 H   0  0  0  0  0  0  0  0  0  0  0  0
    1.8952  -25.4518   27.2569 H   0  0  0  0  0  0  0  0  0  0  0  0
    2.5745  -18.0209   25.7389 H   0  0  0  0  0  0  0  0  0  0  0  0
    2.9170  -19.1444   24.6061 H   0  0  0  0  0  0  0  0  0  0  0  0
    3.4904  -18.0471   23.0832 H   0  0  0  0  0  0  0  0  0  0  0  0
    4.0140  -17.5210   24.7939 H   0  0  0  0  0  0  0  0  0  0  0  0
    3.0491  -14.4195   22.3372 H   0  0  0  0  0  0  0  0  0  0  0  0
    2.8721  -12.9006   24.3789 H   0  0  0  0  0  0  0  0  0  0  0  0
    4.2394  -14.1358   26.2733 H   0  0  0  0  0  0  0  0  0  0  0  0
  1  2  1  0
  2  3  1  0
  2  4  1  0
  4  5  1  0
  5  6  1  0
  6  7  2  0
  7  8  1  0
  8  9  2  0
  9 10  1  0
 10 11  2  0
  4 12  1  0
 12 13  2  0
 12 14  1  0
 14 15  1  0
 15 16  1  0
 16 17  2  0
 17 18  1  0
 18 19  1  0
 19 20  2  0
 11  6  1  0
 20 16  1  0
  1 21  1  0
  1 22  1  0
  1 23  1  0
  2 24  1  0
  3 25  1  0
  3 26  1  0
  3 27  1  0
  5 28  1  0
  5 29  1  0
  7 30  1  0
  8 31  1  0
  9 32  1  0
 10 33  1  0
 14 34  1  0
 14 35  1  0
 15 36  1  0
 15 37  1  0
 17 38  1  0
 18 39  1  0
 19 40  1  0
M  END
>  <Energy>  (443) 
852.93943125588669

>  <compound_id>  (443) 
52670

>  <target_id>  (443) 
1

>  <reference_id>  (443) 
82

>  <inspiration_ids>  (443) 
[82, 114]

>  <energy_score>  (443) 
809.1714073762857

>  <distance_score>  (443) 
16.32519405637275

>  <path>  (443) 
/opt/xchem-fragalysis-2/maxwin/BulkDock/SCRATCH/511025/C52670-P82/C52670-P82.minimised.mol

>  <scratch_subdir>  (443) 
/opt/xchem-fragalysis-2/maxwin/BulkDock/SCRATCH/511025/C52670-P82

>  <fragmenstein_runtime>  (443) 
28.102441787719727

>  <fragmenstein_outcome>  (443) 
too moved

>  <fragmenstein_mode>  (443) 
expansion

>  <fragmenstein_error>  (443) 


$$$$
C52670-P114
     RDKit          3D

 40 41  0  0  0  0  0  0  0  0999 V2000
   -1.2801  -18.1361   26.6339 C   0  0  0  0  0  0  0  0  0  0  0  0
   -2.5217  -18.7814   27.1194 C   0  0  0  0  0  0  0  0  0  0  0  0
   -1.3652  -20.2229   28.0363 C   0  0  0  0  0  0  0  0  0  0  0  0
   -3.1145  -17.0801   27.9718 N   0  0  0  0  0  0  0  0  0  0  0  0
   -5.1328  -18.0071   27.7960 C   0  0  0  0  0  0  0  0  0  0  0  0
   -6.9590  -18.2796   29.0303 C   0  0  0  0  0  0  0  0  0  0  0  0
   -7.3753  -17.6756   30.8477 C   0  0  0  0  0  0  0  0  0  0  0  0
   -8.6072  -18.4562   32.2259 C   0  0  0  0  0  0  0  0  0  0  0  0
  -10.1147  -19.7579   31.7627 C   0  0  0  0  0  0  0  0  0  0  0  0
   -9.9503  -20.2972   29.8664 C   0  0  0  0  0  0  0  0  0  0  0  0
   -8.5451  -19.3395   28.7151 N   0  0  0  0  0  0  0  0  0  0  0  0
   -2.2037  -15.5716   27.0706 C   0  0  0  0  0  0  0  0  0  0  0  0
   -2.5597  -14.8511   26.0669 O   0  0  0  0  0  0  0  0  0  0  0  0
   -0.5544  -14.8126   27.8232 C   0  0  0  0  0  0  0  0  0  0  0  0
    1.1632  -13.9491   26.7363 C   0  0  0  0  0  0  0  0  0  0  0  0
    3.2086  -14.0845   26.9556 C   0  0  0  0  0  0  0  0  0  0  0  0
    4.2627  -14.2933   25.8737 C   0  0  0  0  0  0  0  0  0  0  0  0
    5.4956  -13.2767   26.0234 N   0  0  0  0  0  0  0  0  0  0  0  0
    5.5977  -12.7583   27.2609 C   0  0  0  0  0  0  0  0  0  0  0  0
    4.4549  -13.0846   27.8000 N   0  0  0  0  0  0  0  0  0  0  0  0
   -0.8493  -17.5446   27.4111 H   0  0  0  0  0  0  0  0  0  0  0  0
   -0.4300  -18.6987   26.3438 H   0  0  0  0  0  0  0  0  0  0  0  0
   -1.6978  -17.6711   25.7697 H   0  0  0  0  0  0  0  0  0  0  0  0
   -2.6617  -19.2076   26.1277 H   0  0  0  0  0  0  0  0  0  0  0  0
   -0.6652  -20.8408   27.5946 H   0  0  0  0  0  0  0  0  0  0  0  0
   -1.8102  -20.7536   28.8843 H   0  0  0  0  0  0  0  0  0  0  0  0
   -0.6875  -19.8020   28.8291 H   0  0  0  0  0  0  0  0  0  0  0  0
   -5.3187  -19.0122   27.4866 H   0  0  0  0  0  0  0  0  0  0  0  0
   -5.4187  -17.5008   28.8633 H   0  0  0  0  0  0  0  0  0  0  0  0
   -6.6856  -16.9345   31.2734 H   0  0  0  0  0  0  0  0  0  0  0  0
   -8.5448  -18.0918   33.2559 H   0  0  0  0  0  0  0  0  0  0  0  0
  -10.6987  -20.2907   32.5112 H   0  0  0  0  0  0  0  0  0  0  0  0
  -10.4860  -21.1392   29.3938 H   0  0  0  0  0  0  0  0  0  0  0  0
   -1.4547  -14.4298   28.2979 H   0  0  0  0  0  0  0  0  0  0  0  0
   -0.2343  -15.4640   28.7094 H   0  0  0  0  0  0  0  0  0  0  0  0
    1.0888  -12.8638   26.7494 H   0  0  0  0  0  0  0  0  0  0  0  0
    1.0455  -13.8236   25.6679 H   0  0  0  0  0  0  0  0  0  0  0  0
    4.2231  -14.7127   24.8831 H   0  0  0  0  0  0  0  0  0  0  0  0
    6.0886  -12.8839   25.3191 H   0  0  0  0  0  0  0  0  0  0  0  0
    6.3665  -12.0945   27.6315 H   0  0  0  0  0  0  0  0  0  0  0  0
  1  2  1  0
  2  3  1  0
  2  4  1  0
  4  5  1  0
  5  6  1  0
  6  7  2  0
  7  8  1  0
  8  9  2  0
  9 10  1  0
 10 11  2  0
  4 12  1  0
 12 13  2  0
 12 14  1  0
 14 15  1  0
 15 16  1  0
 16 17  2  0
 17 18  1  0
 18 19  1  0
 19 20  2  0
 11  6  1  0
 20 16  1  0
  1 21  1  0
  1 22  1  0
  1 23  1  0
  2 24  1  0
  3 25  1  0
  3 26  1  0
  3 27  1  0
  5 28  1  0
  5 29  1  0
  7 30  1  0
  8 31  1  0
  9 32  1  0
 10 33  1  0
 14 34  1  0
 14 35  1  0
 15 36  1  0
 15 37  1  0
 17 38  1  0
 18 39  1  0
 19 40  1  0
M  END
>  <Energy>  (444) 
1993.6334413134643

>  <compound_id>  (444) 
52670

>  <target_id>  (444) 
1

>  <reference_id>  (444) 
114

>  <inspiration_ids>  (444) 
[82, 114]

>  <energy_score>  (444) 
1949.8654174338458

>  <distance_score>  (444) 
13.366958978537326

>  <path>  (444) 
/opt/xchem-fragalysis-2/maxwin/BulkDock/SCRATCH/511025/C52670-P114/C52670-P114.minimised.mol

>  <scratch_subdir>  (444) 
/opt/xchem-fragalysis-2/maxwin/BulkDock/SCRATCH/511025/C52670-P114

>  <fragmenstein_runtime>  (444) 
16.545536756515503

>  <fragmenstein_outcome>  (444) 
too moved

>  <fragmenstein_mode>  (444) 
expansion

>  <fragmenstein_error>  (444) 


$$$$
C23240-P82
     RDKit          3D

 44 45  0  0  0  0  0  0  0  0999 V2000
   -8.5843  -16.5931   24.1299 C   0  0  0  0  0  0  0  0  0  0  0  0
   -7.7083  -15.4708   24.6959 C   0  0  0  0  0  0  0  0  0  0  0  0
   -8.2280  -15.0649   26.0195 N   0  0  0  0  0  0  0  0  0  0  0  0
   -7.9124  -16.3098   27.1938 C   0  0  0  0  0  0  0  0  0  0  0  0
   -6.9281  -16.3950   27.8956 O   0  0  0  0  0  0  0  0  0  0  0  0
   -9.1150  -17.6160   27.6560 C   0  0  0  0  0  0  0  0  0  0  0  0
  -10.3768  -17.0814   28.1748 C   0  0  0  0  0  0  0  0  0  0  0  0
  -11.5175  -18.0155   28.8053 C   0  0  0  0  0  0  0  0  0  0  0  0
  -11.6926  -19.8098   29.2438 N   0  0  0  0  0  0  0  0  0  0  0  0
  -10.2243  -20.5235   28.9804 C   0  0  0  0  0  0  0  0  0  0  0  0
   -8.9834  -19.3463   27.9892 C   0  0  0  0  0  0  0  0  0  0  0  0
   -7.2572  -13.4621   25.6034 C   0  0  0  0  0  0  0  0  0  0  0  0
   -8.5104  -12.5430   25.4388 C   0  0  0  0  0  0  0  0  0  0  0  0
   -6.0603  -12.5681   24.2483 C   0  0  0  0  0  0  0  0  0  0  0  0
   -4.4025  -11.5596   24.2592 N   0  0  0  0  0  0  0  0  0  0  0  0
   -3.6968  -10.2946   23.0121 C   0  0  0  0  0  0  0  0  0  0  0  0
   -4.2578  -10.0988   22.0086 O   0  0  0  0  0  0  0  0  0  0  0  0
   -2.5398   -9.3283   23.1389 C   0  0  0  0  0  0  0  0  0  0  0  0
   -1.4198   -9.2011   22.1854 C   0  0  0  0  0  0  0  0  0  0  0  0
   -1.4542   -9.4076   20.8994 N   0  0  0  0  0  0  0  0  0  0  0  0
   -0.3992   -8.6943   20.4289 C   0  0  0  0  0  0  0  0  0  0  0  0
    0.3337   -8.1548   21.4305 C   0  0  0  0  0  0  0  0  0  0  0  0
   -0.3063   -8.4936   22.5486 N   0  0  0  0  0  0  0  0  0  0  0  0
   -9.6435  -16.3168   24.1420 H   0  0  0  0  0  0  0  0  0  0  0  0
   -8.2941  -16.8145   23.0975 H   0  0  0  0  0  0  0  0  0  0  0  0
   -8.4565  -17.5108   24.7073 H   0  0  0  0  0  0  0  0  0  0  0  0
   -6.7209  -15.9231   24.7968 H   0  0  0  0  0  0  0  0  0  0  0  0
   -7.7613  -14.6965   23.9257 H   0  0  0  0  0  0  0  0  0  0  0  0
  -10.5902  -16.0154   28.1061 H   0  0  0  0  0  0  0  0  0  0  0  0
  -12.4093  -17.4541   29.0121 H   0  0  0  0  0  0  0  0  0  0  0  0
  -10.3196  -21.6023   28.8217 H   0  0  0  0  0  0  0  0  0  0  0  0
   -8.0821  -19.7812   27.5181 H   0  0  0  0  0  0  0  0  0  0  0  0
   -6.8431  -13.2283   26.5856 H   0  0  0  0  0  0  0  0  0  0  0  0
   -9.1992  -12.6718   26.2803 H   0  0  0  0  0  0  0  0  0  0  0  0
   -8.2364  -11.4863   25.3829 H   0  0  0  0  0  0  0  0  0  0  0  0
   -9.0521  -12.7996   24.5227 H   0  0  0  0  0  0  0  0  0  0  0  0
   -5.9459  -13.3059   23.4653 H   0  0  0  0  0  0  0  0  0  0  0  0
   -6.7272  -11.8114   23.8230 H   0  0  0  0  0  0  0  0  0  0  0  0
   -3.7565  -11.6753   25.0099 H   0  0  0  0  0  0  0  0  0  0  0  0
   -3.0422   -8.4287   22.7397 H   0  0  0  0  0  0  0  0  0  0  0  0
   -2.4410   -9.2807   24.1923 H   0  0  0  0  0  0  0  0  0  0  0  0
   -0.2886   -8.4877   19.3704 H   0  0  0  0  0  0  0  0  0  0  0  0
    1.0454   -7.3706   21.4245 H   0  0  0  0  0  0  0  0  0  0  0  0
   -0.0922   -8.1054   23.4564 H   0  0  0  0  0  0  0  0  0  0  0  0
  1  2  1  0
  2  3  1  0
  3  4  1  0
  4  5  2  0
  4  6  1  0
  6  7  2  0
  7  8  1  0
  8  9  2  0
  9 10  1  0
 10 11  2  0
  3 12  1  0
 12 13  1  0
 12 14  1  0
 14 15  1  0
 15 16  1  0
 16 17  2  0
 16 18  1  0
 18 19  1  0
 19 20  2  0
 20 21  1  0
 21 22  2  0
 22 23  1  0
 11  6  1  0
 23 19  1  0
  1 24  1  0
  1 25  1  0
  1 26  1  0
  2 27  1  0
  2 28  1  0
  7 29  1  0
  8 30  1  0
 10 31  1  0
 11 32  1  0
 12 33  1  0
 13 34  1  0
 13 35  1  0
 13 36  1  0
 14 37  1  0
 14 38  1  0
 15 39  1  0
 18 40  1  0
 18 41  1  0
 21 42  1  0
 22 43  1  0
 23 44  1  0
M  END
>  <Energy>  (445) 
746.71096100029933

>  <compound_id>  (445) 
23240

>  <target_id>  (445) 
1

>  <reference_id>  (445) 
82

>  <inspiration_ids>  (445) 
[82, 114]

>  <energy_score>  (445) 
680.4540502644861

>  <distance_score>  (445) 
11.893113664598815

>  <path>  (445) 
/opt/xchem-fragalysis-2/maxwin/BulkDock/SCRATCH/511025/C23240-P82/C23240-P82.minimised.mol

>  <scratch_subdir>  (445) 
/opt/xchem-fragalysis-2/maxwin/BulkDock/SCRATCH/511025/C23240-P82

>  <fragmenstein_runtime>  (445) 
46.01489019393921

>  <fragmenstein_outcome>  (445) 
too moved

>  <fragmenstein_mode>  (445) 
expansion

>  <fragmenstein_error>  (445) 


$$$$
C23240-P114
     RDKit          3D

 44 45  0  0  0  0  0  0  0  0999 V2000
   -2.6601  -12.4936   25.5876 C   0  0  0  0  0  0  0  0  0  0  0  0
   -1.4582  -13.6851   25.3391 C   0  0  0  0  0  0  0  0  0  0  0  0
   -1.2983  -14.8795   24.4427 N   0  0  0  0  0  0  0  0  0  0  0  0
   -2.8311  -15.6106   24.2126 C   0  0  0  0  0  0  0  0  0  0  0  0
   -3.6408  -15.3985   23.3414 O   0  0  0  0  0  0  0  0  0  0  0  0
   -3.3834  -16.9588   25.2216 C   0  0  0  0  0  0  0  0  0  0  0  0
   -2.8092  -17.8126   26.1894 C   0  0  0  0  0  0  0  0  0  0  0  0
   -3.5643  -18.8348   26.8015 C   0  0  0  0  0  0  0  0  0  0  0  0
   -4.8454  -19.1301   26.5159 N   0  0  0  0  0  0  0  0  0  0  0  0
   -5.4038  -18.3705   25.5643 C   0  0  0  0  0  0  0  0  0  0  0  0
   -4.7340  -17.3315   24.9091 C   0  0  0  0  0  0  0  0  0  0  0  0
   -0.2488  -13.5552   23.2684 C   0  0  0  0  0  0  0  0  0  0  0  0
    1.5966  -13.3467   24.2134 C   0  0  0  0  0  0  0  0  0  0  0  0
   -0.1454  -11.4661   22.5443 C   0  0  0  0  0  0  0  0  0  0  0  0
   -0.1408  -10.5565   20.9270 N   0  0  0  0  0  0  0  0  0  0  0  0
    0.4500   -8.8914   20.4608 C   0  0  0  0  0  0  0  0  0  0  0  0
    0.8561   -8.0828   21.2684 O   0  0  0  0  0  0  0  0  0  0  0  0
    0.5913   -8.4510   18.4074 C   0  0  0  0  0  0  0  0  0  0  0  0
    1.5537   -7.7043   16.7217 C   0  0  0  0  0  0  0  0  0  0  0  0
    2.8043   -7.9870   16.1080 N   0  0  0  0  0  0  0  0  0  0  0  0
    3.6356   -6.6539   15.2250 C   0  0  0  0  0  0  0  0  0  0  0  0
    2.9122   -5.5520   15.0989 C   0  0  0  0  0  0  0  0  0  0  0  0
    1.7296   -6.1436   15.6402 N   0  0  0  0  0  0  0  0  0  0  0  0
   -2.2158  -11.5783   25.8582 H   0  0  0  0  0  0  0  0  0  0  0  0
   -3.2285  -12.6511   26.5025 H   0  0  0  0  0  0  0  0  0  0  0  0
   -3.3905  -12.2954   24.8121 H   0  0  0  0  0  0  0  0  0  0  0  0
   -1.5810  -14.3536   26.2176 H   0  0  0  0  0  0  0  0  0  0  0  0
   -2.3909  -14.1683   25.5446 H   0  0  0  0  0  0  0  0  0  0  0  0
   -1.7870  -17.7695   26.5298 H   0  0  0  0  0  0  0  0  0  0  0  0
   -3.1111  -19.4651   27.5645 H   0  0  0  0  0  0  0  0  0  0  0  0
   -6.4336  -18.6077   25.3160 H   0  0  0  0  0  0  0  0  0  0  0  0
   -5.2869  -16.7789   24.1510 H   0  0  0  0  0  0  0  0  0  0  0  0
   -0.1157  -14.2620   22.4580 H   0  0  0  0  0  0  0  0  0  0  0  0
    1.4853  -13.3531   25.3334 H   0  0  0  0  0  0  0  0  0  0  0  0
    2.4749  -13.8214   23.6955 H   0  0  0  0  0  0  0  0  0  0  0  0
    1.9632  -12.3094   24.0279 H   0  0  0  0  0  0  0  0  0  0  0  0
    0.9123  -11.4813   22.5045 H   0  0  0  0  0  0  0  0  0  0  0  0
   -1.0720  -11.5851   21.8920 H   0  0  0  0  0  0  0  0  0  0  0  0
   -0.5083  -11.0152   20.1089 H   0  0  0  0  0  0  0  0  0  0  0  0
    1.4310   -9.1540   18.2834 H   0  0  0  0  0  0  0  0  0  0  0  0
   -0.3910   -8.6721   17.9907 H   0  0  0  0  0  0  0  0  0  0  0  0
    4.3484   -6.8301   14.4107 H   0  0  0  0  0  0  0  0  0  0  0  0
    2.9125   -4.6753   14.4646 H   0  0  0  0  0  0  0  0  0  0  0  0
    0.9705   -6.0049   14.9734 H   0  0  0  0  0  0  0  0  0  0  0  0
  1  2  1  0
  2  3  1  0
  3  4  1  0
  4  5  2  0
  4  6  1  0
  6  7  2  0
  7  8  1  0
  8  9  2  0
  9 10  1  0
 10 11  2  0
  3 12  1  0
 12 13  1  0
 12 14  1  0
 14 15  1  0
 15 16  1  0
 16 17  2  0
 16 18  1  0
 18 19  1  0
 19 20  2  0
 20 21  1  0
 21 22  2  0
 22 23  1  0
 11  6  1  0
 23 19  1  0
  1 24  1  0
  1 25  1  0
  1 26  1  0
  2 27  1  0
  2 28  1  0
  7 29  1  0
  8 30  1  0
 10 31  1  0
 11 32  1  0
 12 33  1  0
 13 34  1  0
 13 35  1  0
 13 36  1  0
 14 37  1  0
 14 38  1  0
 15 39  1  0
 18 40  1  0
 18 41  1  0
 21 42  1  0
 22 43  1  0
 23 44  1  0
M  END
>  <Energy>  (446) 
1140.8865947983795

>  <compound_id>  (446) 
23240

>  <target_id>  (446) 
1

>  <reference_id>  (446) 
114

>  <inspiration_ids>  (446) 
[82, 114]

>  <energy_score>  (446) 
1074.6296840625528

>  <distance_score>  (446) 
11.793487168514948

>  <path>  (446) 
/opt/xchem-fragalysis-2/maxwin/BulkDock/SCRATCH/511025/C23240-P114/C23240-P114.minimised.mol

>  <scratch_subdir>  (446) 
/opt/xchem-fragalysis-2/maxwin/BulkDock/SCRATCH/511025/C23240-P114

>  <fragmenstein_runtime>  (446) 
29.247524976730347

>  <fragmenstein_outcome>  (446) 
too moved

>  <fragmenstein_mode>  (446) 
expansion

>  <fragmenstein_error>  (446) 


$$$$
C23242-P82
     RDKit          3D

 40 42  0  0  0  0  0  0  0  0999 V2000
  -12.3463  -13.5990   21.4137 O   0  0  0  0  0  0  0  0  0  0  0  0
  -11.4420  -14.3734   21.5901 C   0  0  0  0  0  0  0  0  0  0  0  0
  -11.6575  -15.7232   20.9733 C   0  0  0  0  0  0  0  0  0  0  0  0
  -10.9386  -16.8508   20.8271 C   0  0  0  0  0  0  0  0  0  0  0  0
   -9.5732  -17.1573   21.3955 C   0  0  0  0  0  0  0  0  0  0  0  0
   -9.3221  -18.6522   21.6474 C   0  0  0  0  0  0  0  0  0  0  0  0
  -10.7928  -19.4713   22.3549 S   0  0  0  0  0  0  0  0  0  0  0  0
  -11.9746  -19.1524   21.0016 C   0  0  0  0  0  0  0  0  0  0  0  0
  -11.5570  -18.0142   20.0681 C   0  0  0  0  0  0  0  0  0  0  0  0
  -10.1794  -14.1892   22.1982 N   0  0  0  0  0  0  0  0  0  0  0  0
   -9.4824  -12.8877   22.7441 C   0  0  0  0  0  0  0  0  0  0  0  0
   -9.0641  -12.1016   21.4384 C   0  0  0  0  0  0  0  0  0  0  0  0
   -9.2539  -10.8229   21.1692 N   0  0  0  0  0  0  0  0  0  0  0  0
   -8.9029  -10.6398   19.8446 C   0  0  0  0  0  0  0  0  0  0  0  0
   -8.4120  -11.8017   19.3115 C   0  0  0  0  0  0  0  0  0  0  0  0
   -8.5428  -12.7168   20.3165 N   0  0  0  0  0  0  0  0  0  0  0  0
  -10.2644  -14.5211   23.7846 C   0  0  0  0  0  0  0  0  0  0  0  0
  -11.5040  -14.7604   24.4119 C   0  0  0  0  0  0  0  0  0  0  0  0
  -11.6838  -15.2885   25.6615 N   0  0  0  0  0  0  0  0  0  0  0  0
  -10.5797  -15.6156   26.3625 C   0  0  0  0  0  0  0  0  0  0  0  0
   -9.3112  -15.5034   25.8371 C   0  0  0  0  0  0  0  0  0  0  0  0
   -7.8218  -16.0149   26.8735 Br  0  0  0  0  0  0  0  0  0  0  0  0
   -9.1554  -14.9972   24.5328 C   0  0  0  0  0  0  0  0  0  0  0  0
  -12.6490  -15.7215   20.5113 H   0  0  0  0  0  0  0  0  0  0  0  0
   -9.4335  -16.6482   22.3476 H   0  0  0  0  0  0  0  0  0  0  0  0
   -8.8028  -16.7831   20.7121 H   0  0  0  0  0  0  0  0  0  0  0  0
   -8.4813  -18.7721   22.3384 H   0  0  0  0  0  0  0  0  0  0  0  0
   -9.0469  -19.1663   20.7200 H   0  0  0  0  0  0  0  0  0  0  0  0
  -12.1095  -20.0748   20.4274 H   0  0  0  0  0  0  0  0  0  0  0  0
  -12.9387  -18.9179   21.4662 H   0  0  0  0  0  0  0  0  0  0  0  0
  -10.8371  -18.3777   19.3230 H   0  0  0  0  0  0  0  0  0  0  0  0
  -12.4323  -17.6997   19.4855 H   0  0  0  0  0  0  0  0  0  0  0  0
   -8.5428  -13.0184   23.2898 H   0  0  0  0  0  0  0  0  0  0  0  0
  -10.2110  -12.2370   23.2505 H   0  0  0  0  0  0  0  0  0  0  0  0
   -9.0206   -9.6768   19.3638 H   0  0  0  0  0  0  0  0  0  0  0  0
   -8.0624  -12.0610   18.3225 H   0  0  0  0  0  0  0  0  0  0  0  0
   -8.4932  -13.7149   20.2044 H   0  0  0  0  0  0  0  0  0  0  0  0
  -12.4455  -14.5223   23.9195 H   0  0  0  0  0  0  0  0  0  0  0  0
  -10.7579  -15.9793   27.3700 H   0  0  0  0  0  0  0  0  0  0  0  0
   -8.1579  -15.0086   24.1071 H   0  0  0  0  0  0  0  0  0  0  0  0
  1  2  2  0
  2  3  1  0
  3  4  2  3
  4  5  1  0
  5  6  1  0
  6  7  1  0
  7  8  1  0
  8  9  1  0
  2 10  1  0
 10 11  1  0
 11 12  1  0
 12 13  2  0
 13 14  1  0
 14 15  2  0
 15 16  1  0
 10 17  1  0
 17 18  2  0
 18 19  1  0
 19 20  2  0
 20 21  1  0
 21 22  1  0
 21 23  2  0
  9  4  1  0
 16 12  1  0
 23 17  1  0
  3 24  1  0
  5 25  1  0
  5 26  1  0
  6 27  1  0
  6 28  1  0
  8 29  1  0
  8 30  1  0
  9 31  1  0
  9 32  1  0
 11 33  1  0
 11 34  1  0
 14 35  1  0
 15 36  1  0
 16 37  1  0
 18 38  1  0
 20 39  1  0
 23 40  1  0
M  END
>  <Energy>  (447) 
146.96142790466575

>  <compound_id>  (447) 
23242

>  <target_id>  (447) 
1

>  <reference_id>  (447) 
82

>  <inspiration_ids>  (447) 
[82, 114]

>  <energy_score>  (447) 
37.93708629417995

>  <distance_score>  (447) 
17.23025390256278

>  <path>  (447) 
/opt/xchem-fragalysis-2/maxwin/BulkDock/SCRATCH/511025/C23242-P82/C23242-P82.minimised.mol

>  <scratch_subdir>  (447) 
/opt/xchem-fragalysis-2/maxwin/BulkDock/SCRATCH/511025/C23242-P82

>  <fragmenstein_runtime>  (447) 
41.50868010520935

>  <fragmenstein_outcome>  (447) 
too moved

>  <fragmenstein_mode>  (447) 
expansion

>  <fragmenstein_error>  (447) 


$$$$
C23242-P114
     RDKit          3D

 40 42  0  0  0  0  0  0  0  0999 V2000
    1.7650  -18.6079   16.4217 O   0  0  0  0  0  0  0  0  0  0  0  0
    2.3387  -19.2785   17.2338 C   0  0  0  0  0  0  0  0  0  0  0  0
    2.6614  -20.7196   16.9759 C   0  0  0  0  0  0  0  0  0  0  0  0
    2.0279  -21.5167   16.0915 C   0  0  0  0  0  0  0  0  0  0  0  0
    2.4979  -22.9432   15.8864 C   0  0  0  0  0  0  0  0  0  0  0  0
    2.5291  -23.3407   14.4121 C   0  0  0  0  0  0  0  0  0  0  0  0
    0.8745  -23.3848   13.6430 S   0  0  0  0  0  0  0  0  0  0  0  0
   -0.0224  -22.2425   14.7494 C   0  0  0  0  0  0  0  0  0  0  0  0
    0.8418  -21.0841   15.2506 C   0  0  0  0  0  0  0  0  0  0  0  0
    2.8512  -18.9423   18.5097 N   0  0  0  0  0  0  0  0  0  0  0  0
    2.9470  -17.5501   19.2494 C   0  0  0  0  0  0  0  0  0  0  0  0
    3.8482  -16.4890   18.5025 C   0  0  0  0  0  0  0  0  0  0  0  0
    4.7190  -15.6629   19.0779 N   0  0  0  0  0  0  0  0  0  0  0  0
    5.1645  -14.7976   18.1046 C   0  0  0  0  0  0  0  0  0  0  0  0
    4.5627  -15.0880   16.9073 C   0  0  0  0  0  0  0  0  0  0  0  0
    3.7386  -16.1609   17.1650 N   0  0  0  0  0  0  0  0  0  0  0  0
    1.7285  -19.2013   19.6555 C   0  0  0  0  0  0  0  0  0  0  0  0
    2.0730  -19.9147   20.8263 C   0  0  0  0  0  0  0  0  0  0  0  0
    1.1975  -20.4407   21.7497 N   0  0  0  0  0  0  0  0  0  0  0  0
   -0.1255  -20.2953   21.4955 C   0  0  0  0  0  0  0  0  0  0  0  0
   -0.5922  -19.6595   20.3567 C   0  0  0  0  0  0  0  0  0  0  0  0
   -2.4413  -19.4937   20.0238 Br  0  0  0  0  0  0  0  0  0  0  0  0
    0.3355  -19.1511   19.4193 C   0  0  0  0  0  0  0  0  0  0  0  0
    3.4922  -21.1087   17.5587 H   0  0  0  0  0  0  0  0  0  0  0  0
    3.5087  -23.0711   16.2944 H   0  0  0  0  0  0  0  0  0  0  0  0
    1.8494  -23.6253   16.4509 H   0  0  0  0  0  0  0  0  0  0  0  0
    2.9684  -24.3380   14.3067 H   0  0  0  0  0  0  0  0  0  0  0  0
    3.1547  -22.6478   13.8385 H   0  0  0  0  0  0  0  0  0  0  0  0
   -0.4217  -22.8194   15.5912 H   0  0  0  0  0  0  0  0  0  0  0  0
   -0.8801  -21.8490   14.1938 H   0  0  0  0  0  0  0  0  0  0  0  0
    0.1868  -20.4316   15.8399 H   0  0  0  0  0  0  0  0  0  0  0  0
    1.2035  -20.5014   14.3940 H   0  0  0  0  0  0  0  0  0  0  0  0
    3.5320  -17.7475   20.1523 H   0  0  0  0  0  0  0  0  0  0  0  0
    1.9893  -17.0297   19.3735 H   0  0  0  0  0  0  0  0  0  0  0  0
    5.8871  -14.0234   18.3270 H   0  0  0  0  0  0  0  0  0  0  0  0
    4.6415  -14.6550   15.9208 H   0  0  0  0  0  0  0  0  0  0  0  0
    3.1311  -16.6314   16.5029 H   0  0  0  0  0  0  0  0  0  0  0  0
    3.1185  -20.1227   21.0479 H   0  0  0  0  0  0  0  0  0  0  0  0
   -0.7940  -20.7165   22.2394 H   0  0  0  0  0  0  0  0  0  0  0  0
   -0.0394  -18.7178   18.4954 H   0  0  0  0  0  0  0  0  0  0  0  0
  1  2  2  0
  2  3  1  0
  3  4  2  3
  4  5  1  0
  5  6  1  0
  6  7  1  0
  7  8  1  0
  8  9  1  0
  2 10  1  0
 10 11  1  0
 11 12  1  0
 12 13  2  0
 13 14  1  0
 14 15  2  0
 15 16  1  0
 10 17  1  0
 17 18  2  0
 18 19  1  0
 19 20  2  0
 20 21  1  0
 21 22  1  0
 21 23  2  0
  9  4  1  0
 16 12  1  0
 23 17  1  0
  3 24  1  0
  5 25  1  0
  5 26  1  0
  6 27  1  0
  6 28  1  0
  8 29  1  0
  8 30  1  0
  9 31  1  0
  9 32  1  0
 11 33  1  0
 11 34  1  0
 14 35  1  0
 15 36  1  0
 16 37  1  0
 18 38  1  0
 20 39  1  0
 23 40  1  0
M  END
>  <Energy>  (448) 
137.01926034865764

>  <compound_id>  (448) 
23242

>  <target_id>  (448) 
1

>  <reference_id>  (448) 
114

>  <inspiration_ids>  (448) 
[82, 114]

>  <energy_score>  (448) 
27.99491873817078

>  <distance_score>  (448) 
17.29018129745139

>  <path>  (448) 
/opt/xchem-fragalysis-2/maxwin/BulkDock/SCRATCH/511025/C23242-P114/C23242-P114.minimised.mol

>  <scratch_subdir>  (448) 
/opt/xchem-fragalysis-2/maxwin/BulkDock/SCRATCH/511025/C23242-P114

>  <fragmenstein_runtime>  (448) 
28.66407823562622

>  <fragmenstein_outcome>  (448) 
too moved

>  <fragmenstein_mode>  (448) 
expansion

>  <fragmenstein_error>  (448) 


$$$$
C23243-P82
     RDKit          3D

 38 41  0  0  0  0  0  0  0  0999 V2000
   -5.1881  -18.3517   20.0010 O   0  0  0  0  0  0  0  0  0  0  0  0
   -4.0881  -18.5942   20.4026 C   0  0  0  0  0  0  0  0  0  0  0  0
   -3.6308  -19.5562   21.3932 N   0  0  0  0  0  0  0  0  0  0  0  0
   -4.3576  -20.5919   22.1364 C   0  0  0  0  0  0  0  0  0  0  0  0
   -4.9981  -21.7128   21.2888 C   0  0  0  0  0  0  0  0  0  0  0  0
   -6.1719  -21.6510   22.2364 C   0  0  0  0  0  0  0  0  0  0  0  0
   -6.3817  -22.8016   23.1827 C   0  0  0  0  0  0  0  0  0  0  0  0
   -7.7197  -22.9827   22.5919 N   0  0  0  0  0  0  0  0  0  0  0  0
   -7.5356  -21.8649   21.6544 C   0  0  0  0  0  0  0  0  0  0  0  0
   -5.7600  -20.2793   22.7206 C   0  0  0  0  0  0  0  0  0  0  0  0
   -2.9412  -17.7352   19.8603 C   0  0  0  0  0  0  0  0  0  0  0  0
   -1.7547  -18.3421   19.7138 C   0  0  0  0  0  0  0  0  0  0  0  0
   -0.8193  -17.4403   20.0397 C   0  0  0  0  0  0  0  0  0  0  0  0
   -0.9541  -16.0074   20.0159 N   0  0  0  0  0  0  0  0  0  0  0  0
   -2.0156  -15.1268   20.0154 C   0  0  0  0  0  0  0  0  0  0  0  0
   -2.0071  -13.1368   20.0091 C   0  0  0  0  0  0  0  0  0  0  0  0
   -2.1144  -12.5797   18.7064 N   0  0  0  0  0  0  0  0  0  0  0  0
   -2.3765  -11.2373   18.7589 C   0  0  0  0  0  0  0  0  0  0  0  0
   -2.2839  -10.8086   20.0333 C   0  0  0  0  0  0  0  0  0  0  0  0
   -1.8898  -11.9180   20.7282 N   0  0  0  0  0  0  0  0  0  0  0  0
   -2.9513  -16.2356   20.0587 C   0  0  0  0  0  0  0  0  0  0  0  0
   -2.6384  -19.4306   21.5431 H   0  0  0  0  0  0  0  0  0  0  0  0
   -3.6938  -21.0071   22.9088 H   0  0  0  0  0  0  0  0  0  0  0  0
   -4.4339  -22.6496   21.2597 H   0  0  0  0  0  0  0  0  0  0  0  0
   -5.2318  -21.4188   20.2584 H   0  0  0  0  0  0  0  0  0  0  0  0
   -5.7271  -23.6665   23.0274 H   0  0  0  0  0  0  0  0  0  0  0  0
   -6.3731  -22.5757   24.2498 H   0  0  0  0  0  0  0  0  0  0  0  0
   -8.5068  -22.8831   23.2237 H   0  0  0  0  0  0  0  0  0  0  0  0
   -8.2464  -21.0441   21.7869 H   0  0  0  0  0  0  0  0  0  0  0  0
   -7.5657  -22.1731   20.6040 H   0  0  0  0  0  0  0  0  0  0  0  0
   -6.2862  -19.4517   22.2333 H   0  0  0  0  0  0  0  0  0  0  0  0
   -5.7644  -20.1085   23.7995 H   0  0  0  0  0  0  0  0  0  0  0  0
   -1.5749  -19.4036   19.6672 H   0  0  0  0  0  0  0  0  0  0  0  0
    0.1489  -17.7604   20.3380 H   0  0  0  0  0  0  0  0  0  0  0  0
   -2.6084  -10.6462   17.8920 H   0  0  0  0  0  0  0  0  0  0  0  0
   -2.3502   -9.8305   20.4866 H   0  0  0  0  0  0  0  0  0  0  0  0
   -1.5131  -11.7481   21.6372 H   0  0  0  0  0  0  0  0  0  0  0  0
   -3.6388  -16.2309   20.9100 H   0  0  0  0  0  0  0  0  0  0  0  0
  1  2  2  0
  2  3  1  0
  3  4  1  0
  4  5  1  0
  5  6  1  0
  6  7  1  0
  7  8  1  0
  8  9  1  0
  6 10  1  0
  2 11  1  0
 11 12  2  0
 12 13  1  0
 13 14  2  0
 14 15  1  0
 15 16  1  0
 16 17  2  0
 17 18  1  0
 18 19  2  0
 19 20  1  0
 15 21  2  0
 10  4  1  0
 21 11  1  0
  9  6  1  0
 20 16  1  0
  3 22  1  0
  4 23  1  0
  5 24  1  0
  5 25  1  0
  7 26  1  0
  7 27  1  0
  8 28  1  0
  9 29  1  0
  9 30  1  0
 10 31  1  0
 10 32  1  0
 12 33  1  0
 13 34  1  0
 18 35  1  0
 19 36  1  0
 20 37  1  0
 21 38  1  0
M  END
>  <Energy>  (449) 
265.88304688520452

>  <compound_id>  (449) 
23243

>  <target_id>  (449) 
1

>  <reference_id>  (449) 
82

>  <inspiration_ids>  (449) 
[82, 114]

>  <energy_score>  (449) 
223.08050101254742

>  <distance_score>  (449) 
14.511738509298201

>  <path>  (449) 
/opt/xchem-fragalysis-2/maxwin/BulkDock/SCRATCH/511025/C23243-P82/C23243-P82.minimised.mol

>  <scratch_subdir>  (449) 
/opt/xchem-fragalysis-2/maxwin/BulkDock/SCRATCH/511025/C23243-P82

>  <fragmenstein_runtime>  (449) 
28.153624057769775

>  <fragmenstein_outcome>  (449) 
too moved

>  <fragmenstein_mode>  (449) 
expansion

>  <fragmenstein_error>  (449) 


$$$$
C23243-P114
     RDKit          3D

 38 41  0  0  0  0  0  0  0  0999 V2000
   -3.4270  -11.6500   25.7424 O   0  0  0  0  0  0  0  0  0  0  0  0
   -4.4661  -11.1375   26.0452 C   0  0  0  0  0  0  0  0  0  0  0  0
   -5.6189  -11.6778   26.7427 N   0  0  0  0  0  0  0  0  0  0  0  0
   -5.8353  -13.0067   27.3884 C   0  0  0  0  0  0  0  0  0  0  0  0
   -6.3872  -14.2076   26.5386 C   0  0  0  0  0  0  0  0  0  0  0  0
   -7.0393  -14.6811   27.8324 C   0  0  0  0  0  0  0  0  0  0  0  0
   -8.2453  -15.5779   27.8438 C   0  0  0  0  0  0  0  0  0  0  0  0
   -7.3457  -16.7034   28.2120 N   0  0  0  0  0  0  0  0  0  0  0  0
   -6.3150  -15.7234   28.6542 C   0  0  0  0  0  0  0  0  0  0  0  0
   -7.0795  -13.2411   28.3143 C   0  0  0  0  0  0  0  0  0  0  0  0
   -4.4604   -9.6442   25.6999 C   0  0  0  0  0  0  0  0  0  0  0  0
   -4.6586   -8.7177   26.7144 C   0  0  0  0  0  0  0  0  0  0  0  0
   -4.1693   -7.4265   26.5178 C   0  0  0  0  0  0  0  0  0  0  0  0
   -3.4525   -7.0064   25.4362 N   0  0  0  0  0  0  0  0  0  0  0  0
   -3.2585   -7.8961   24.4338 C   0  0  0  0  0  0  0  0  0  0  0  0
   -2.2584   -7.4782   23.3788 C   0  0  0  0  0  0  0  0  0  0  0  0
   -1.8695   -8.1510   22.3000 N   0  0  0  0  0  0  0  0  0  0  0  0
   -0.8229   -7.4444   21.7332 C   0  0  0  0  0  0  0  0  0  0  0  0
   -0.5744   -6.3011   22.4490 C   0  0  0  0  0  0  0  0  0  0  0  0
   -1.4751   -6.3352   23.4839 N   0  0  0  0  0  0  0  0  0  0  0  0
   -3.8247   -9.1823   24.5131 C   0  0  0  0  0  0  0  0  0  0  0  0
   -6.3558  -10.9815   26.7524 H   0  0  0  0  0  0  0  0  0  0  0  0
   -4.9032  -13.2809   27.9064 H   0  0  0  0  0  0  0  0  0  0  0  0
   -5.6265  -14.8592   26.1001 H   0  0  0  0  0  0  0  0  0  0  0  0
   -7.0952  -13.9117   25.7554 H   0  0  0  0  0  0  0  0  0  0  0  0
   -8.9828  -15.3379   28.6175 H   0  0  0  0  0  0  0  0  0  0  0  0
   -8.7629  -15.7102   26.8897 H   0  0  0  0  0  0  0  0  0  0  0  0
   -7.6742  -17.3156   28.9602 H   0  0  0  0  0  0  0  0  0  0  0  0
   -6.3273  -15.5449   29.7357 H   0  0  0  0  0  0  0  0  0  0  0  0
   -5.2958  -15.9774   28.3498 H   0  0  0  0  0  0  0  0  0  0  0  0
   -6.9070  -13.0762   29.3813 H   0  0  0  0  0  0  0  0  0  0  0  0
   -7.9750  -12.6870   28.0094 H   0  0  0  0  0  0  0  0  0  0  0  0
   -5.0856   -8.9955   27.6712 H   0  0  0  0  0  0  0  0  0  0  0  0
   -4.2923   -6.6721   27.2929 H   0  0  0  0  0  0  0  0  0  0  0  0
   -0.3172   -7.8124   20.8487 H   0  0  0  0  0  0  0  0  0  0  0  0
    0.1471   -5.5049   22.3400 H   0  0  0  0  0  0  0  0  0  0  0  0
   -1.5479   -5.6826   24.2515 H   0  0  0  0  0  0  0  0  0  0  0  0
   -3.7047   -9.8618   23.6858 H   0  0  0  0  0  0  0  0  0  0  0  0
  1  2  2  0
  2  3  1  0
  3  4  1  0
  4  5  1  0
  5  6  1  0
  6  7  1  0
  7  8  1  0
  8  9  1  0
  6 10  1  0
  2 11  1  0
 11 12  2  0
 12 13  1  0
 13 14  2  0
 14 15  1  0
 15 16  1  0
 16 17  2  0
 17 18  1  0
 18 19  2  0
 19 20  1  0
 15 21  2  0
 10  4  1  0
 21 11  1  0
  9  6  1  0
 20 16  1  0
  3 22  1  0
  4 23  1  0
  5 24  1  0
  5 25  1  0
  7 26  1  0
  7 27  1  0
  8 28  1  0
  9 29  1  0
  9 30  1  0
 10 31  1  0
 10 32  1  0
 12 33  1  0
 13 34  1  0
 18 35  1  0
 19 36  1  0
 20 37  1  0
 21 38  1  0
M  END
>  <Energy>  (450) 
53.238694730924841

>  <compound_id>  (450) 
23243

>  <target_id>  (450) 
1

>  <reference_id>  (450) 
114

>  <inspiration_ids>  (450) 
[82, 114]

>  <energy_score>  (450) 
10.43614885827219

>  <distance_score>  (450) 
14.460173706163053

>  <path>  (450) 
/opt/xchem-fragalysis-2/maxwin/BulkDock/SCRATCH/511025/C23243-P114/C23243-P114.minimised.mol

>  <scratch_subdir>  (450) 
/opt/xchem-fragalysis-2/maxwin/BulkDock/SCRATCH/511025/C23243-P114

>  <fragmenstein_runtime>  (450) 
36.919557332992554

>  <fragmenstein_outcome>  (450) 
too moved

>  <fragmenstein_mode>  (450) 
expansion

>  <fragmenstein_error>  (450) 


$$$$
C23245-P82
     RDKit          3D

 34 37  0  0  0  0  0  0  0  0999 V2000
   -0.5485  -14.9002   29.7905 Br  0  0  0  0  0  0  0  0  0  0  0  0
   -2.2105  -14.5940   28.5366 C   0  0  0  0  0  0  0  0  0  0  0  0
   -3.1922  -15.1362   29.4619 C   0  0  0  0  0  0  0  0  0  0  0  0
   -3.5055  -16.4881   29.4249 C   0  0  0  0  0  0  0  0  0  0  0  0
   -2.9090  -17.1984   28.4146 C   0  0  0  0  0  0  0  0  0  0  0  0
   -2.2054  -16.6042   27.3892 N   0  0  0  0  0  0  0  0  0  0  0  0
   -1.9138  -15.2007   27.2703 C   0  0  0  0  0  0  0  0  0  0  0  0
   -1.7726  -14.3364   25.6232 N   0  0  0  0  0  0  0  0  0  0  0  0
   -2.2556  -15.4223   24.6867 C   0  0  0  0  0  0  0  0  0  0  0  0
   -1.2876  -15.0535   23.5539 C   0  0  0  0  0  0  0  0  0  0  0  0
   -0.3696  -14.1455   24.2859 C   0  0  0  0  0  0  0  0  0  0  0  0
    1.5293  -13.2888   24.2558 C   0  0  0  0  0  0  0  0  0  0  0  0
    1.2034  -11.7177   23.1173 C   0  0  0  0  0  0  0  0  0  0  0  0
    0.4013  -10.2573   21.8108 C   0  0  0  0  0  0  0  0  0  0  0  0
    1.2102   -9.2836   21.2845 N   0  0  0  0  0  0  0  0  0  0  0  0
    0.4727   -8.1973   20.9196 C   0  0  0  0  0  0  0  0  0  0  0  0
   -0.8436   -8.4637   21.1479 C   0  0  0  0  0  0  0  0  0  0  0  0
   -0.8855   -9.7573   21.6230 N   0  0  0  0  0  0  0  0  0  0  0  0
   -0.2065  -12.8346   22.7113 C   0  0  0  0  0  0  0  0  0  0  0  0
   -3.5055  -14.5316   30.3102 H   0  0  0  0  0  0  0  0  0  0  0  0
   -4.1186  -16.9645   30.1778 H   0  0  0  0  0  0  0  0  0  0  0  0
   -3.0213  -18.2745   28.3197 H   0  0  0  0  0  0  0  0  0  0  0  0
   -2.4180  -16.4164   25.0917 H   0  0  0  0  0  0  0  0  0  0  0  0
   -3.2590  -15.3901   24.2692 H   0  0  0  0  0  0  0  0  0  0  0  0
   -0.8893  -15.0462   22.5016 H   0  0  0  0  0  0  0  0  0  0  0  0
   -2.1538  -14.9209   22.9175 H   0  0  0  0  0  0  0  0  0  0  0  0
    1.7374  -13.0202   25.3015 H   0  0  0  0  0  0  0  0  0  0  0  0
    2.5125  -13.6279   23.8078 H   0  0  0  0  0  0  0  0  0  0  0  0
    2.2935  -11.7634   22.9185 H   0  0  0  0  0  0  0  0  0  0  0  0
    0.9282   -7.3174   20.4908 H   0  0  0  0  0  0  0  0  0  0  0  0
   -1.7448   -7.9051   20.9486 H   0  0  0  0  0  0  0  0  0  0  0  0
   -1.7301  -10.2928   21.6691 H   0  0  0  0  0  0  0  0  0  0  0  0
   -1.1042  -12.2197   21.7766 H   0  0  0  0  0  0  0  0  0  0  0  0
   -0.3539  -11.7517   22.5971 H   0  0  0  0  0  0  0  0  0  0  0  0
  1  2  1  0
  2  3  2  0
  3  4  1  0
  4  5  2  0
  5  6  1  0
  6  7  2  0
  7  8  1  0
  8  9  1  0
  9 10  1  0
 10 11  1  0
 11 12  1  0
 12 13  1  0
 13 14  1  0
 14 15  2  0
 15 16  1  0
 16 17  2  0
 17 18  1  0
 13 19  1  0
  7  2  1  0
 11  8  1  0
 18 14  1  0
 19 11  1  0
  3 20  1  0
  4 21  1  0
  5 22  1  0
  9 23  1  0
  9 24  1  0
 10 25  1  0
 10 26  1  0
 12 27  1  0
 12 28  1  0
 13 29  1  0
 16 30  1  0
 17 31  1  0
 18 32  1  0
 19 33  1  0
 19 34  1  0
M  END
>  <Energy>  (451) 
837.34934363006005

>  <compound_id>  (451) 
23245

>  <target_id>  (451) 
1

>  <reference_id>  (451) 
82

>  <inspiration_ids>  (451) 
[82, 114]

>  <energy_score>  (451) 
759.3259588558558

>  <distance_score>  (451) 
14.459650592439308

>  <path>  (451) 
/opt/xchem-fragalysis-2/maxwin/BulkDock/SCRATCH/511025/C23245-P82/C23245-P82.minimised.mol

>  <scratch_subdir>  (451) 
/opt/xchem-fragalysis-2/maxwin/BulkDock/SCRATCH/511025/C23245-P82

>  <fragmenstein_runtime>  (451) 
15.582714796066284

>  <fragmenstein_outcome>  (451) 
too moved

>  <fragmenstein_mode>  (451) 
expansion

>  <fragmenstein_error>  (451) 


$$$$
C23245-P114
     RDKit          3D

 34 37  0  0  0  0  0  0  0  0999 V2000
   -2.2388  -20.4876   23.8322 Br  0  0  0  0  0  0  0  0  0  0  0  0
   -2.0108  -18.6222   25.5868 C   0  0  0  0  0  0  0  0  0  0  0  0
   -1.9363  -19.1834   26.9956 C   0  0  0  0  0  0  0  0  0  0  0  0
   -2.2232  -18.5737   28.1997 C   0  0  0  0  0  0  0  0  0  0  0  0
   -2.5638  -17.2975   28.0721 C   0  0  0  0  0  0  0  0  0  0  0  0
   -2.5150  -16.6506   26.8659 N   0  0  0  0  0  0  0  0  0  0  0  0
   -2.3145  -16.9290   25.4295 C   0  0  0  0  0  0  0  0  0  0  0  0
   -1.2929  -15.4539   24.5754 N   0  0  0  0  0  0  0  0  0  0  0  0
   -1.5114  -14.1878   25.0994 C   0  0  0  0  0  0  0  0  0  0  0  0
   -0.4931  -14.0545   23.4427 C   0  0  0  0  0  0  0  0  0  0  0  0
    0.4889  -14.4267   24.3932 C   0  0  0  0  0  0  0  0  0  0  0  0
    2.3786  -14.3627   23.4457 C   0  0  0  0  0  0  0  0  0  0  0  0
    2.6736  -12.8964   23.8180 C   0  0  0  0  0  0  0  0  0  0  0  0
    3.8169  -12.0377   22.3737 C   0  0  0  0  0  0  0  0  0  0  0  0
    4.7989  -11.0197   22.4456 N   0  0  0  0  0  0  0  0  0  0  0  0
    5.8442  -11.1175   21.3503 C   0  0  0  0  0  0  0  0  0  0  0  0
    5.5010  -12.1655   20.5323 C   0  0  0  0  0  0  0  0  0  0  0  0
    4.2692  -12.6903   21.0460 N   0  0  0  0  0  0  0  0  0  0  0  0
    1.5625  -13.1921   25.3507 C   0  0  0  0  0  0  0  0  0  0  0  0
   -1.6095  -20.1594   27.2361 H   0  0  0  0  0  0  0  0  0  0  0  0
   -2.1753  -19.0846   29.1488 H   0  0  0  0  0  0  0  0  0  0  0  0
   -2.8263  -16.6717   28.9165 H   0  0  0  0  0  0  0  0  0  0  0  0
   -1.1225  -13.4587   25.7647 H   0  0  0  0  0  0  0  0  0  0  0  0
   -2.4410  -14.2635   25.5754 H   0  0  0  0  0  0  0  0  0  0  0  0
   -0.7614  -14.7284   22.6034 H   0  0  0  0  0  0  0  0  0  0  0  0
   -0.2256  -13.1802   22.8930 H   0  0  0  0  0  0  0  0  0  0  0  0
    2.9219  -14.4989   22.5047 H   0  0  0  0  0  0  0  0  0  0  0  0
    3.3057  -14.8698   23.8471 H   0  0  0  0  0  0  0  0  0  0  0  0
    2.0303  -12.0556   23.5455 H   0  0  0  0  0  0  0  0  0  0  0  0
    6.6960  -10.4500   21.3554 H   0  0  0  0  0  0  0  0  0  0  0  0
    5.9357  -12.6071   19.6530 H   0  0  0  0  0  0  0  0  0  0  0  0
    3.8235  -13.5276   20.6990 H   0  0  0  0  0  0  0  0  0  0  0  0
    1.9312  -13.7104   26.2541 H   0  0  0  0  0  0  0  0  0  0  0  0
    1.1515  -12.3362   25.9278 H   0  0  0  0  0  0  0  0  0  0  0  0
  1  2  1  0
  2  3  2  0
  3  4  1  0
  4  5  2  0
  5  6  1  0
  6  7  2  0
  7  8  1  0
  8  9  1  0
  9 10  1  0
 10 11  1  0
 11 12  1  0
 12 13  1  0
 13 14  1  0
 14 15  2  0
 15 16  1  0
 16 17  2  0
 17 18  1  0
 13 19  1  0
  7  2  1  0
 11  8  1  0
 18 14  1  0
 19 11  1  0
  3 20  1  0
  4 21  1  0
  5 22  1  0
  9 23  1  0
  9 24  1  0
 10 25  1  0
 10 26  1  0
 12 27  1  0
 12 28  1  0
 13 29  1  0
 16 30  1  0
 17 31  1  0
 18 32  1  0
 19 33  1  0
 19 34  1  0
M  END
>  <Energy>  (452) 
940.94271999445118

>  <compound_id>  (452) 
23245

>  <target_id>  (452) 
1

>  <reference_id>  (452) 
114

>  <inspiration_ids>  (452) 
[82, 114]

>  <energy_score>  (452) 
862.9193352202346

>  <distance_score>  (452) 
13.226875514822739

>  <path>  (452) 
/opt/xchem-fragalysis-2/maxwin/BulkDock/SCRATCH/511025/C23245-P114/C23245-P114.minimised.mol

>  <scratch_subdir>  (452) 
/opt/xchem-fragalysis-2/maxwin/BulkDock/SCRATCH/511025/C23245-P114

>  <fragmenstein_runtime>  (452) 
25.172133207321167

>  <fragmenstein_outcome>  (452) 
too moved

>  <fragmenstein_mode>  (452) 
expansion

>  <fragmenstein_error>  (452) 


$$$$
C23246-P82
     RDKit          3D

 44 47  0  0  0  0  0  0  0  0999 V2000
   -3.7548  -21.2934   21.3021 C   0  0  0  0  0  0  0  0  0  0  0  0
   -3.5235  -20.7314   22.6640 N   0  0  0  0  0  0  0  0  0  0  0  0
   -2.5257  -21.8518   22.7155 C   0  0  0  0  0  0  0  0  0  0  0  0
   -4.3448  -20.7457   23.8296 C   0  0  0  0  0  0  0  0  0  0  0  0
   -5.3997  -21.2950   24.0377 O   0  0  0  0  0  0  0  0  0  0  0  0
   -3.9100  -19.8313   25.0324 C   0  0  0  0  0  0  0  0  0  0  0  0
   -4.4180  -20.2345   26.3429 C   0  0  0  0  0  0  0  0  0  0  0  0
   -3.1805  -19.5655   27.1258 C   0  0  0  0  0  0  0  0  0  0  0  0
   -2.1324  -18.0754   26.6947 C   0  0  0  0  0  0  0  0  0  0  0  0
   -2.1848  -17.3512   25.4845 C   0  0  0  0  0  0  0  0  0  0  0  0
   -1.2916  -15.8139   24.5950 N   0  0  0  0  0  0  0  0  0  0  0  0
   -1.9077  -14.7462   24.9212 C   0  0  0  0  0  0  0  0  0  0  0  0
   -0.6435  -14.2249   23.4950 C   0  0  0  0  0  0  0  0  0  0  0  0
    0.3358  -14.5355   24.4145 C   0  0  0  0  0  0  0  0  0  0  0  0
    2.1725  -14.5408   23.3531 C   0  0  0  0  0  0  0  0  0  0  0  0
    2.7362  -13.2099   23.9395 C   0  0  0  0  0  0  0  0  0  0  0  0
    3.5298  -12.2933   22.3635 C   0  0  0  0  0  0  0  0  0  0  0  0
    4.4489  -11.2964   22.1820 N   0  0  0  0  0  0  0  0  0  0  0  0
    5.4763  -11.6786   20.9180 C   0  0  0  0  0  0  0  0  0  0  0  0
    4.9465  -12.7210   20.2751 C   0  0  0  0  0  0  0  0  0  0  0  0
    3.8158  -13.0287   21.0526 N   0  0  0  0  0  0  0  0  0  0  0  0
    1.4761  -13.2646   25.3471 C   0  0  0  0  0  0  0  0  0  0  0  0
   -2.4330  -18.7334   25.2769 N   0  0  0  0  0  0  0  0  0  0  0  0
   -4.5773  -20.6754   20.9129 H   0  0  0  0  0  0  0  0  0  0  0  0
   -2.9364  -21.1177   20.5891 H   0  0  0  0  0  0  0  0  0  0  0  0
   -4.1846  -22.3066   21.2769 H   0  0  0  0  0  0  0  0  0  0  0  0
   -1.9851  -21.7210   23.6495 H   0  0  0  0  0  0  0  0  0  0  0  0
   -1.7172  -21.8057   21.9692 H   0  0  0  0  0  0  0  0  0  0  0  0
   -2.9821  -22.8490   22.8173 H   0  0  0  0  0  0  0  0  0  0  0  0
   -5.0683  -21.0385   26.6128 H   0  0  0  0  0  0  0  0  0  0  0  0
   -2.9008  -20.2400   27.9431 H   0  0  0  0  0  0  0  0  0  0  0  0
   -1.2603  -17.8681   27.3027 H   0  0  0  0  0  0  0  0  0  0  0  0
   -2.8374  -15.1943   24.5474 H   0  0  0  0  0  0  0  0  0  0  0  0
   -2.0607  -14.3852   25.9013 H   0  0  0  0  0  0  0  0  0  0  0  0
   -0.2635  -13.3782   22.9781 H   0  0  0  0  0  0  0  0  0  0  0  0
   -0.8264  -14.8211   22.5739 H   0  0  0  0  0  0  0  0  0  0  0  0
    3.0158  -15.2536   23.5326 H   0  0  0  0  0  0  0  0  0  0  0  0
    2.8437  -14.5369   22.4783 H   0  0  0  0  0  0  0  0  0  0  0  0
    3.6416  -13.5468   24.4316 H   0  0  0  0  0  0  0  0  0  0  0  0
    6.4549  -11.2356   20.8332 H   0  0  0  0  0  0  0  0  0  0  0  0
    5.2253  -13.2902   19.4009 H   0  0  0  0  0  0  0  0  0  0  0  0
    3.2809  -13.8522   20.8503 H   0  0  0  0  0  0  0  0  0  0  0  0
    1.2639  -12.2833   25.7800 H   0  0  0  0  0  0  0  0  0  0  0  0
    1.7956  -13.7154   26.2946 H   0  0  0  0  0  0  0  0  0  0  0  0
  1  2  1  0
  2  3  1  0
  2  4  1  0
  4  5  2  0
  4  6  1  0
  6  7  2  0
  7  8  1  0
  8  9  2  0
  9 10  1  0
 10 11  1  0
 11 12  1  0
 12 13  1  0
 13 14  1  0
 14 15  1  0
 15 16  1  0
 16 17  1  0
 17 18  2  0
 18 19  1  0
 19 20  2  0
 20 21  1  0
 16 22  1  0
 10 23  2  0
 23  6  1  0
 14 11  1  0
 21 17  1  0
 22 14  1  0
  1 24  1  0
  1 25  1  0
  1 26  1  0
  3 27  1  0
  3 28  1  0
  3 29  1  0
  7 30  1  0
  8 31  1  0
  9 32  1  0
 12 33  1  0
 12 34  1  0
 13 35  1  0
 13 36  1  0
 15 37  1  0
 15 38  1  0
 16 39  1  0
 19 40  1  0
 20 41  1  0
 21 42  1  0
 22 43  1  0
 22 44  1  0
M  END
>  <Energy>  (453) 
1188.9732754099311

>  <compound_id>  (453) 
23246

>  <target_id>  (453) 
1

>  <reference_id>  (453) 
82

>  <inspiration_ids>  (453) 
[82, 114]

>  <energy_score>  (453) 
1102.8189329844868

>  <distance_score>  (453) 
12.601204361145616

>  <path>  (453) 
/opt/xchem-fragalysis-2/maxwin/BulkDock/SCRATCH/511025/C23246-P82/C23246-P82.minimised.mol

>  <scratch_subdir>  (453) 
/opt/xchem-fragalysis-2/maxwin/BulkDock/SCRATCH/511025/C23246-P82

>  <fragmenstein_runtime>  (453) 
57.025513887405396

>  <fragmenstein_outcome>  (453) 
too moved

>  <fragmenstein_mode>  (453) 
expansion

>  <fragmenstein_error>  (453) 


$$$$
C23246-P114
     RDKit          3D

 44 47  0  0  0  0  0  0  0  0999 V2000
   -5.5551  -17.1589   33.8680 C   0  0  0  0  0  0  0  0  0  0  0  0
   -5.2595  -17.1184   32.4026 N   0  0  0  0  0  0  0  0  0  0  0  0
   -5.4691  -18.6075   32.5484 C   0  0  0  0  0  0  0  0  0  0  0  0
   -6.0362  -16.6063   31.2973 C   0  0  0  0  0  0  0  0  0  0  0  0
   -7.1613  -16.1625   31.2684 O   0  0  0  0  0  0  0  0  0  0  0  0
   -5.2995  -16.4879   29.9071 C   0  0  0  0  0  0  0  0  0  0  0  0
   -6.1091  -16.9868   28.8974 C   0  0  0  0  0  0  0  0  0  0  0  0
   -5.3533  -17.4097   27.8096 C   0  0  0  0  0  0  0  0  0  0  0  0
   -3.7236  -17.0084   27.5449 C   0  0  0  0  0  0  0  0  0  0  0  0
   -3.0983  -15.9629   28.1473 C   0  0  0  0  0  0  0  0  0  0  0  0
   -2.3694  -14.7934   26.8575 N   0  0  0  0  0  0  0  0  0  0  0  0
   -2.4279  -15.3277   25.3050 C   0  0  0  0  0  0  0  0  0  0  0  0
   -1.5564  -14.0726   25.1876 C   0  0  0  0  0  0  0  0  0  0  0  0
   -2.7536  -13.3146   25.7303 C   0  0  0  0  0  0  0  0  0  0  0  0
   -4.2460  -12.5656   24.4794 C   0  0  0  0  0  0  0  0  0  0  0  0
   -3.6361  -11.3473   24.1959 C   0  0  0  0  0  0  0  0  0  0  0  0
   -3.3388   -9.5738   23.3754 C   0  0  0  0  0  0  0  0  0  0  0  0
   -2.7524   -9.5943   22.1772 N   0  0  0  0  0  0  0  0  0  0  0  0
   -2.1832   -8.3601   21.9606 C   0  0  0  0  0  0  0  0  0  0  0  0
   -2.3889   -7.5604   23.0540 C   0  0  0  0  0  0  0  0  0  0  0  0
   -3.1136   -8.3277   23.9456 N   0  0  0  0  0  0  0  0  0  0  0  0
   -2.8519  -11.9481   25.9159 C   0  0  0  0  0  0  0  0  0  0  0  0
   -3.7604  -16.0153   29.6641 N   0  0  0  0  0  0  0  0  0  0  0  0
   -6.6168  -17.3296   34.1024 H   0  0  0  0  0  0  0  0  0  0  0  0
   -5.4012  -16.1251   34.2007 H   0  0  0  0  0  0  0  0  0  0  0  0
   -4.8455  -17.7295   34.4857 H   0  0  0  0  0  0  0  0  0  0  0  0
   -5.5293  -19.0494   31.5579 H   0  0  0  0  0  0  0  0  0  0  0  0
   -6.4313  -18.9262   32.9835 H   0  0  0  0  0  0  0  0  0  0  0  0
   -4.6040  -19.0965   33.0208 H   0  0  0  0  0  0  0  0  0  0  0  0
   -7.1196  -17.3104   29.0448 H   0  0  0  0  0  0  0  0  0  0  0  0
   -5.8014  -18.2596   27.2845 H   0  0  0  0  0  0  0  0  0  0  0  0
   -2.9228  -17.5362   27.0196 H   0  0  0  0  0  0  0  0  0  0  0  0
   -3.2090  -15.3945   24.5409 H   0  0  0  0  0  0  0  0  0  0  0  0
   -2.4236  -16.4258   25.2580 H   0  0  0  0  0  0  0  0  0  0  0  0
   -0.8494  -13.4549   25.6982 H   0  0  0  0  0  0  0  0  0  0  0  0
   -0.9075  -14.3012   24.3114 H   0  0  0  0  0  0  0  0  0  0  0  0
   -5.3379  -12.2421   24.6950 H   0  0  0  0  0  0  0  0  0  0  0  0
   -4.8472  -13.2691   23.8163 H   0  0  0  0  0  0  0  0  0  0  0  0
   -4.6705  -10.8592   24.0586 H   0  0  0  0  0  0  0  0  0  0  0  0
   -1.6473   -8.1391   21.0458 H   0  0  0  0  0  0  0  0  0  0  0  0
   -2.0851   -6.5504   23.2888 H   0  0  0  0  0  0  0  0  0  0  0  0
   -3.3543   -8.0390   24.8828 H   0  0  0  0  0  0  0  0  0  0  0  0
   -3.4724  -11.9423   26.8167 H   0  0  0  0  0  0  0  0  0  0  0  0
   -1.9376  -11.5249   26.0259 H   0  0  0  0  0  0  0  0  0  0  0  0
  1  2  1  0
  2  3  1  0
  2  4  1  0
  4  5  2  0
  4  6  1  0
  6  7  2  0
  7  8  1  0
  8  9  2  0
  9 10  1  0
 10 11  1  0
 11 12  1  0
 12 13  1  0
 13 14  1  0
 14 15  1  0
 15 16  1  0
 16 17  1  0
 17 18  2  0
 18 19  1  0
 19 20  2  0
 20 21  1  0
 16 22  1  0
 10 23  2  0
 23  6  1  0
 14 11  1  0
 21 17  1  0
 22 14  1  0
  1 24  1  0
  1 25  1  0
  1 26  1  0
  3 27  1  0
  3 28  1  0
  3 29  1  0
  7 30  1  0
  8 31  1  0
  9 32  1  0
 12 33  1  0
 12 34  1  0
 13 35  1  0
 13 36  1  0
 15 37  1  0
 15 38  1  0
 16 39  1  0
 19 40  1  0
 20 41  1  0
 21 42  1  0
 22 43  1  0
 22 44  1  0
M  END
>  <Energy>  (454) 
796.16229750289949

>  <compound_id>  (454) 
23246

>  <target_id>  (454) 
1

>  <reference_id>  (454) 
114

>  <inspiration_ids>  (454) 
[82, 114]

>  <energy_score>  (454) 
710.0079550774366

>  <distance_score>  (454) 
14.188047128457427

>  <path>  (454) 
/opt/xchem-fragalysis-2/maxwin/BulkDock/SCRATCH/511025/C23246-P114/C23246-P114.minimised.mol

>  <scratch_subdir>  (454) 
/opt/xchem-fragalysis-2/maxwin/BulkDock/SCRATCH/511025/C23246-P114

>  <fragmenstein_runtime>  (454) 
31.366055250167847

>  <fragmenstein_outcome>  (454) 
too moved

>  <fragmenstein_mode>  (454) 
expansion

>  <fragmenstein_error>  (454) 


$$$$
C23247-P82
     RDKit          3D

 37 38  0  0  0  0  0  0  0  0999 V2000
   -2.6332  -16.9679   26.9672 C   0  0  0  0  0  0  0  0  0  0  0  0
   -2.2107  -17.4401   25.5015 C   0  0  0  0  0  0  0  0  0  0  0  0
   -0.8287  -18.1343   26.3438 C   0  0  0  0  0  0  0  0  0  0  0  0
   -1.8230  -15.4535   24.6943 C   0  0  0  0  0  0  0  0  0  0  0  0
   -2.0953  -14.6322   25.5251 O   0  0  0  0  0  0  0  0  0  0  0  0
   -0.9892  -14.7045   23.0984 N   0  0  0  0  0  0  0  0  0  0  0  0
   -0.3439  -12.8169   22.6106 C   0  0  0  0  0  0  0  0  0  0  0  0
   -1.4608  -11.7572   21.2188 C   0  0  0  0  0  0  0  0  0  0  0  0
   -1.1975  -10.1434   21.1920 C   0  0  0  0  0  0  0  0  0  0  0  0
   -0.4113   -9.4107   21.9501 N   0  0  0  0  0  0  0  0  0  0  0  0
   -0.4141   -8.1348   21.4412 C   0  0  0  0  0  0  0  0  0  0  0  0
   -1.2427   -8.0600   20.3545 C   0  0  0  0  0  0  0  0  0  0  0  0
   -1.7825   -9.3186   20.2422 N   0  0  0  0  0  0  0  0  0  0  0  0
   -2.6853  -19.4397   25.6340 C   0  0  0  0  0  0  0  0  0  0  0  0
   -2.7852  -20.2571   26.8612 C   0  0  0  0  0  0  0  0  0  0  0  0
   -3.7677  -21.2555   27.2229 C   0  0  0  0  0  0  0  0  0  0  0  0
   -4.7492  -21.6040   26.3471 C   0  0  0  0  0  0  0  0  0  0  0  0
   -5.7498  -22.4288   26.6850 F   0  0  0  0  0  0  0  0  0  0  0  0
   -4.5698  -21.1258   25.0892 C   0  0  0  0  0  0  0  0  0  0  0  0
   -3.6002  -20.1957   24.7481 N   0  0  0  0  0  0  0  0  0  0  0  0
   -2.1777  -17.5765   27.6403 H   0  0  0  0  0  0  0  0  0  0  0  0
   -2.2144  -16.0134   27.3283 H   0  0  0  0  0  0  0  0  0  0  0  0
   -3.6265  -17.0984   27.3368 H   0  0  0  0  0  0  0  0  0  0  0  0
   -0.3831  -17.6362   27.1982 H   0  0  0  0  0  0  0  0  0  0  0  0
   -1.0818  -18.9902   26.8920 H   0  0  0  0  0  0  0  0  0  0  0  0
   -0.0317  -18.4739   25.7481 H   0  0  0  0  0  0  0  0  0  0  0  0
   -0.8785  -15.4628   22.4100 H   0  0  0  0  0  0  0  0  0  0  0  0
    0.6165  -12.0988   22.9197 H   0  0  0  0  0  0  0  0  0  0  0  0
   -0.3024  -11.6547   22.6362 H   0  0  0  0  0  0  0  0  0  0  0  0
   -2.5405  -11.7650   21.2607 H   0  0  0  0  0  0  0  0  0  0  0  0
   -1.3100  -12.0696   20.1920 H   0  0  0  0  0  0  0  0  0  0  0  0
    0.1688   -7.3483   21.8958 H   0  0  0  0  0  0  0  0  0  0  0  0
   -1.5076   -7.2577   19.6841 H   0  0  0  0  0  0  0  0  0  0  0  0
   -2.3983   -9.6347   19.5099 H   0  0  0  0  0  0  0  0  0  0  0  0
   -1.9391  -20.3946   27.5279 H   0  0  0  0  0  0  0  0  0  0  0  0
   -3.7130  -21.7394   28.1922 H   0  0  0  0  0  0  0  0  0  0  0  0
   -5.2185  -21.4265   24.2746 H   0  0  0  0  0  0  0  0  0  0  0  0
  1  2  1  0
  2  3  1  0
  2  4  1  0
  4  5  2  0
  4  6  1  0
  6  7  1  0
  7  8  1  0
  8  9  1  0
  9 10  2  0
 10 11  1  0
 11 12  2  0
 12 13  1  0
  2 14  1  0
 14 15  2  0
 15 16  1  0
 16 17  2  0
 17 18  1  0
 17 19  1  0
 19 20  2  0
 13  9  1  0
 20 14  1  0
  1 21  1  0
  1 22  1  0
  1 23  1  0
  3 24  1  0
  3 25  1  0
  3 26  1  0
  6 27  1  0
  7 28  1  0
  7 29  1  0
  8 30  1  0
  8 31  1  0
 11 32  1  0
 12 33  1  0
 13 34  1  0
 15 35  1  0
 16 36  1  0
 19 37  1  0
M  END
>  <Energy>  (455) 
903.22894199749067

>  <compound_id>  (455) 
23247

>  <target_id>  (455) 
1

>  <reference_id>  (455) 
82

>  <inspiration_ids>  (455) 
[82, 114]

>  <energy_score>  (455) 
838.677446676757

>  <distance_score>  (455) 
13.103753133076582

>  <path>  (455) 
/opt/xchem-fragalysis-2/maxwin/BulkDock/SCRATCH/511025/C23247-P82/C23247-P82.minimised.mol

>  <scratch_subdir>  (455) 
/opt/xchem-fragalysis-2/maxwin/BulkDock/SCRATCH/511025/C23247-P82

>  <fragmenstein_runtime>  (455) 
23.187633991241455

>  <fragmenstein_outcome>  (455) 
too moved

>  <fragmenstein_mode>  (455) 
expansion

>  <fragmenstein_error>  (455) 


$$$$
C23247-P114
     RDKit          3D

 37 38  0  0  0  0  0  0  0  0999 V2000
   -2.0249  -19.5695   26.9238 C   0  0  0  0  0  0  0  0  0  0  0  0
   -2.8246  -18.0025   27.4620 C   0  0  0  0  0  0  0  0  0  0  0  0
   -2.6893  -17.2148   25.7486 C   0  0  0  0  0  0  0  0  0  0  0  0
   -1.8121  -17.0817   26.9136 C   0  0  0  0  0  0  0  0  0  0  0  0
   -0.8354  -17.7583   26.4320 O   0  0  0  0  0  0  0  0  0  0  0  0
   -2.0945  -15.1651   26.7463 N   0  0  0  0  0  0  0  0  0  0  0  0
   -1.1504  -13.7754   25.6770 C   0  0  0  0  0  0  0  0  0  0  0  0
    0.8051  -13.3111   26.0105 C   0  0  0  0  0  0  0  0  0  0  0  0
    2.0018  -13.0491   24.7081 C   0  0  0  0  0  0  0  0  0  0  0  0
    3.2155  -13.6327   24.7150 N   0  0  0  0  0  0  0  0  0  0  0  0
    3.1559  -13.8791   23.4821 C   0  0  0  0  0  0  0  0  0  0  0  0
    3.2032  -12.6016   22.9893 C   0  0  0  0  0  0  0  0  0  0  0  0
    2.1887  -12.1126   23.7350 N   0  0  0  0  0  0  0  0  0  0  0  0
   -4.0207  -19.6261   27.3307 C   0  0  0  0  0  0  0  0  0  0  0  0
   -4.0513  -20.7743   26.2989 C   0  0  0  0  0  0  0  0  0  0  0  0
   -5.1266  -21.6553   26.0657 C   0  0  0  0  0  0  0  0  0  0  0  0
   -6.1757  -21.5326   26.8987 C   0  0  0  0  0  0  0  0  0  0  0  0
   -7.0561  -22.5136   27.0850 F   0  0  0  0  0  0  0  0  0  0  0  0
   -5.9795  -20.5952   27.8652 C   0  0  0  0  0  0  0  0  0  0  0  0
   -5.2726  -19.4602   27.8254 N   0  0  0  0  0  0  0  0  0  0  0  0
   -2.1392  -20.4855   27.5553 H   0  0  0  0  0  0  0  0  0  0  0  0
   -2.2646  -19.6739   25.8937 H   0  0  0  0  0  0  0  0  0  0  0  0
   -0.9874  -19.4955   27.0228 H   0  0  0  0  0  0  0  0  0  0  0  0
   -3.3920  -16.4645   25.4657 H   0  0  0  0  0  0  0  0  0  0  0  0
   -2.3859  -18.0793   25.2272 H   0  0  0  0  0  0  0  0  0  0  0  0
   -2.2130  -16.5124   25.0305 H   0  0  0  0  0  0  0  0  0  0  0  0
   -2.8318  -14.9049   27.2643 H   0  0  0  0  0  0  0  0  0  0  0  0
   -1.9110  -12.9821   25.5196 H   0  0  0  0  0  0  0  0  0  0  0  0
   -1.0874  -14.3588   24.7238 H   0  0  0  0  0  0  0  0  0  0  0  0
    1.0257  -12.3390   26.4322 H   0  0  0  0  0  0  0  0  0  0  0  0
    1.3302  -14.0312   26.5909 H   0  0  0  0  0  0  0  0  0  0  0  0
    3.4003  -14.8726   23.1511 H   0  0  0  0  0  0  0  0  0  0  0  0
    3.6099  -12.2494   22.0691 H   0  0  0  0  0  0  0  0  0  0  0  0
    1.4684  -11.5044   23.3831 H   0  0  0  0  0  0  0  0  0  0  0  0
   -3.2776  -20.9746   25.5620 H   0  0  0  0  0  0  0  0  0  0  0  0
   -5.0773  -22.4374   25.3193 H   0  0  0  0  0  0  0  0  0  0  0  0
   -5.5816  -21.1259   28.7441 H   0  0  0  0  0  0  0  0  0  0  0  0
  1  2  1  0
  2  3  1  0
  2  4  1  0
  4  5  2  0
  4  6  1  0
  6  7  1  0
  7  8  1  0
  8  9  1  0
  9 10  2  0
 10 11  1  0
 11 12  2  0
 12 13  1  0
  2 14  1  0
 14 15  2  0
 15 16  1  0
 16 17  2  0
 17 18  1  0
 17 19  1  0
 19 20  2  0
 13  9  1  0
 20 14  1  0
  1 21  1  0
  1 22  1  0
  1 23  1  0
  3 24  1  0
  3 25  1  0
  3 26  1  0
  6 27  1  0
  7 28  1  0
  7 29  1  0
  8 30  1  0
  8 31  1  0
 11 32  1  0
 12 33  1  0
 13 34  1  0
 15 35  1  0
 16 36  1  0
 19 37  1  0
M  END
>  <Energy>  (456) 
868.08353695690005

>  <compound_id>  (456) 
23247

>  <target_id>  (456) 
1

>  <reference_id>  (456) 
114

>  <inspiration_ids>  (456) 
[82, 114]

>  <energy_score>  (456) 
803.5320416361635

>  <distance_score>  (456) 
13.228355083808479

>  <path>  (456) 
/opt/xchem-fragalysis-2/maxwin/BulkDock/SCRATCH/511025/C23247-P114/C23247-P114.minimised.mol

>  <scratch_subdir>  (456) 
/opt/xchem-fragalysis-2/maxwin/BulkDock/SCRATCH/511025/C23247-P114

>  <fragmenstein_runtime>  (456) 
32.66403818130493

>  <fragmenstein_outcome>  (456) 
too moved

>  <fragmenstein_mode>  (456) 
expansion

>  <fragmenstein_error>  (456) 


$$$$
C23249-P82
     RDKit          3D

 34 36  0  0  0  0  0  0  0  0999 V2000
    0.7966  -14.1822   23.7540 C   0  0  0  0  0  0  0  0  0  0  0  0
    2.2912  -13.2463   24.1026 C   0  0  0  0  0  0  0  0  0  0  0  0
    1.8782  -11.9216   23.9282 C   0  0  0  0  0  0  0  0  0  0  0  0
    1.8241  -13.3914   25.9641 N   0  0  0  0  0  0  0  0  0  0  0  0
    1.1955  -14.3674   26.9930 C   0  0  0  0  0  0  0  0  0  0  0  0
   -0.3864  -14.7230   27.5851 N   0  0  0  0  0  0  0  0  0  0  0  0
   -0.0384  -16.2211   28.6923 N   0  0  0  0  0  0  0  0  0  0  0  0
    1.2270  -16.7398   28.7623 C   0  0  0  0  0  0  0  0  0  0  0  0
    1.4253  -18.1331   29.3183 C   0  0  0  0  0  0  0  0  0  0  0  0
    1.1724  -19.2320   28.4783 C   0  0  0  0  0  0  0  0  0  0  0  0
    0.6808  -20.4281   29.0254 C   0  0  0  0  0  0  0  0  0  0  0  0
    0.4668  -20.5192   30.3952 C   0  0  0  0  0  0  0  0  0  0  0  0
    0.7937  -19.4185   31.1689 C   0  0  0  0  0  0  0  0  0  0  0  0
    1.2667  -18.2407   30.6699 N   0  0  0  0  0  0  0  0  0  0  0  0
    2.5726  -15.6722   28.2314 S   0  0  0  0  0  0  0  0  0  0  0  0
    3.3953  -12.6592   22.5757 C   0  0  0  0  0  0  0  0  0  0  0  0
    3.5163  -13.2388   21.2992 N   0  0  0  0  0  0  0  0  0  0  0  0
    4.5708  -12.8566   20.3584 C   0  0  0  0  0  0  0  0  0  0  0  0
    5.2587  -11.8586   20.8902 C   0  0  0  0  0  0  0  0  0  0  0  0
    4.3026  -11.4621   22.1506 N   0  0  0  0  0  0  0  0  0  0  0  0
    0.1495  -14.3672   24.5492 H   0  0  0  0  0  0  0  0  0  0  0  0
   -0.0046  -13.9854   22.9985 H   0  0  0  0  0  0  0  0  0  0  0  0
    1.4545  -14.8895   23.3218 H   0  0  0  0  0  0  0  0  0  0  0  0
    2.6591  -11.3422   23.6133 H   0  0  0  0  0  0  0  0  0  0  0  0
    1.1404  -11.6931   23.1410 H   0  0  0  0  0  0  0  0  0  0  0  0
    1.6376  -11.6708   24.9285 H   0  0  0  0  0  0  0  0  0  0  0  0
    2.7885  -13.4219   26.2883 H   0  0  0  0  0  0  0  0  0  0  0  0
    1.2406  -19.1252   27.4003 H   0  0  0  0  0  0  0  0  0  0  0  0
    0.4420  -21.2678   28.3772 H   0  0  0  0  0  0  0  0  0  0  0  0
    0.0756  -21.4235   30.8470 H   0  0  0  0  0  0  0  0  0  0  0  0
    0.6661  -19.4372   32.2481 H   0  0  0  0  0  0  0  0  0  0  0  0
    4.7258  -13.3217   19.3932 H   0  0  0  0  0  0  0  0  0  0  0  0
    6.1930  -11.3513   20.7306 H   0  0  0  0  0  0  0  0  0  0  0  0
    4.7774  -10.7786   22.7171 H   0  0  0  0  0  0  0  0  0  0  0  0
  1  2  1  0
  2  3  1  0
  2  4  1  0
  4  5  1  0
  5  6  2  0
  6  7  1  0
  7  8  2  0
  8  9  1  0
  9 10  2  0
 10 11  1  0
 11 12  2  0
 12 13  1  0
 13 14  2  0
  8 15  1  0
  2 16  1  0
 16 17  2  0
 17 18  1  0
 18 19  2  0
 19 20  1  0
 15  5  1  0
 20 16  1  0
 14  9  1  0
  1 21  1  0
  1 22  1  0
  1 23  1  0
  3 24  1  0
  3 25  1  0
  3 26  1  0
  4 27  1  0
 10 28  1  0
 11 29  1  0
 12 30  1  0
 13 31  1  0
 18 32  1  0
 19 33  1  0
 20 34  1  0
M  END
>  <Energy>  (457) 
583.73758400902216

>  <compound_id>  (457) 
23249

>  <target_id>  (457) 
1

>  <reference_id>  (457) 
82

>  <inspiration_ids>  (457) 
[82, 114]

>  <energy_score>  (457) 
450.97261882295425

>  <distance_score>  (457) 
14.126106527431226

>  <path>  (457) 
/opt/xchem-fragalysis-2/maxwin/BulkDock/SCRATCH/511025/C23249-P82/C23249-P82.minimised.mol

>  <scratch_subdir>  (457) 
/opt/xchem-fragalysis-2/maxwin/BulkDock/SCRATCH/511025/C23249-P82

>  <fragmenstein_runtime>  (457) 
19.380027294158936

>  <fragmenstein_outcome>  (457) 
too moved

>  <fragmenstein_mode>  (457) 
expansion

>  <fragmenstein_error>  (457) 


$$$$
C23249-P114
     RDKit          3D

 34 36  0  0  0  0  0  0  0  0999 V2000
   -2.7293   -8.9155   18.5420 C   0  0  0  0  0  0  0  0  0  0  0  0
   -1.5773   -9.6382   19.0336 C   0  0  0  0  0  0  0  0  0  0  0  0
   -1.6370   -9.6573   20.6103 C   0  0  0  0  0  0  0  0  0  0  0  0
   -1.9269  -11.0237   18.4412 N   0  0  0  0  0  0  0  0  0  0  0  0
   -1.9862  -12.2709   18.9988 C   0  0  0  0  0  0  0  0  0  0  0  0
   -2.0504  -12.6850   20.2680 N   0  0  0  0  0  0  0  0  0  0  0  0
   -2.0491  -14.3502   20.5207 N   0  0  0  0  0  0  0  0  0  0  0  0
   -1.9070  -15.1565   19.4213 C   0  0  0  0  0  0  0  0  0  0  0  0
   -2.1542  -16.7055   19.3547 C   0  0  0  0  0  0  0  0  0  0  0  0
   -1.2469  -17.6301   19.8812 C   0  0  0  0  0  0  0  0  0  0  0  0
   -1.4354  -19.0057   19.6811 C   0  0  0  0  0  0  0  0  0  0  0  0
   -2.6067  -19.4576   19.0874 C   0  0  0  0  0  0  0  0  0  0  0  0
   -3.5152  -18.5025   18.6835 C   0  0  0  0  0  0  0  0  0  0  0  0
   -3.2961  -17.1639   18.7703 N   0  0  0  0  0  0  0  0  0  0  0  0
   -1.7907  -13.8249   17.7554 S   0  0  0  0  0  0  0  0  0  0  0  0
   -0.1852   -8.6100   18.4550 C   0  0  0  0  0  0  0  0  0  0  0  0
    1.0305   -8.5472   19.0566 N   0  0  0  0  0  0  0  0  0  0  0  0
    1.9816   -8.6472   18.0520 C   0  0  0  0  0  0  0  0  0  0  0  0
    1.4387   -8.2241   16.8925 C   0  0  0  0  0  0  0  0  0  0  0  0
    0.1064   -8.2892   17.1315 N   0  0  0  0  0  0  0  0  0  0  0  0
   -3.1864   -9.2592   17.6099 H   0  0  0  0  0  0  0  0  0  0  0  0
   -3.4257   -9.0399   19.3397 H   0  0  0  0  0  0  0  0  0  0  0  0
   -2.4224   -7.8945   18.4516 H   0  0  0  0  0  0  0  0  0  0  0  0
   -1.6855   -8.6607   21.0442 H   0  0  0  0  0  0  0  0  0  0  0  0
   -0.7843  -10.1440   21.0898 H   0  0  0  0  0  0  0  0  0  0  0  0
   -2.5267  -10.1931   20.9584 H   0  0  0  0  0  0  0  0  0  0  0  0
   -1.9754  -11.0498   17.4471 H   0  0  0  0  0  0  0  0  0  0  0  0
   -0.3613  -17.2840   20.4042 H   0  0  0  0  0  0  0  0  0  0  0  0
   -0.6921  -19.7118   20.0442 H   0  0  0  0  0  0  0  0  0  0  0  0
   -2.8065  -20.5150   18.9619 H   0  0  0  0  0  0  0  0  0  0  0  0
   -4.4608  -18.7842   18.2290 H   0  0  0  0  0  0  0  0  0  0  0  0
    3.0090   -8.9171   18.1566 H   0  0  0  0  0  0  0  0  0  0  0  0
    1.8323   -7.9900   15.9090 H   0  0  0  0  0  0  0  0  0  0  0  0
   -0.4680   -8.3816   16.3121 H   0  0  0  0  0  0  0  0  0  0  0  0
  1  2  1  0
  2  3  1  0
  2  4  1  0
  4  5  1  0
  5  6  2  0
  6  7  1  0
  7  8  2  0
  8  9  1  0
  9 10  2  0
 10 11  1  0
 11 12  2  0
 12 13  1  0
 13 14  2  0
  8 15  1  0
  2 16  1  0
 16 17  2  0
 17 18  1  0
 18 19  2  0
 19 20  1  0
 15  5  1  0
 20 16  1  0
 14  9  1  0
  1 21  1  0
  1 22  1  0
  1 23  1  0
  3 24  1  0
  3 25  1  0
  3 26  1  0
  4 27  1  0
 10 28  1  0
 11 29  1  0
 12 30  1  0
 13 31  1  0
 18 32  1  0
 19 33  1  0
 20 34  1  0
M  END
>  <Energy>  (458) 
176.51163060124335

>  <compound_id>  (458) 
23249

>  <target_id>  (458) 
1

>  <reference_id>  (458) 
114

>  <inspiration_ids>  (458) 
[82, 114]

>  <energy_score>  (458) 
43.74666541518286

>  <distance_score>  (458) 
15.672743371187583

>  <path>  (458) 
/opt/xchem-fragalysis-2/maxwin/BulkDock/SCRATCH/511025/C23249-P114/C23249-P114.minimised.mol

>  <scratch_subdir>  (458) 
/opt/xchem-fragalysis-2/maxwin/BulkDock/SCRATCH/511025/C23249-P114

>  <fragmenstein_runtime>  (458) 
15.840845346450806

>  <fragmenstein_outcome>  (458) 
too moved

>  <fragmenstein_mode>  (458) 
expansion

>  <fragmenstein_error>  (458) 


$$$$
C23250-P82
     RDKit          3D

 35 38  0  0  0  0  0  0  0  0999 V2000
   -3.1034  -22.3486   29.7497 C   0  0  0  0  0  0  0  0  0  0  0  0
   -3.3409  -22.2911   28.3819 C   0  0  0  0  0  0  0  0  0  0  0  0
   -3.1891  -21.0779   27.7145 C   0  0  0  0  0  0  0  0  0  0  0  0
   -2.7900  -19.9522   28.4360 C   0  0  0  0  0  0  0  0  0  0  0  0
   -2.4849  -18.6909   27.7534 C   0  0  0  0  0  0  0  0  0  0  0  0
   -3.0578  -17.5332   27.8418 N   0  0  0  0  0  0  0  0  0  0  0  0
   -2.5883  -16.7541   26.7838 N   0  0  0  0  0  0  0  0  0  0  0  0
   -2.2671  -17.1380   25.4477 C   0  0  0  0  0  0  0  0  0  0  0  0
   -1.5193  -15.8332   24.3600 N   0  0  0  0  0  0  0  0  0  0  0  0
   -2.5427  -15.1634   24.6386 C   0  0  0  0  0  0  0  0  0  0  0  0
   -1.4911  -15.1219   23.3748 C   0  0  0  0  0  0  0  0  0  0  0  0
   -0.3224  -15.9859   21.8616 C   0  0  0  0  0  0  0  0  0  0  0  0
   -1.0699  -14.9059   22.4878 C   0  0  0  0  0  0  0  0  0  0  0  0
   -1.9797  -14.2392   20.7832 C   0  0  0  0  0  0  0  0  0  0  0  0
   -1.8663  -14.7708   19.4470 N   0  0  0  0  0  0  0  0  0  0  0  0
   -1.9172  -13.5177   18.2829 C   0  0  0  0  0  0  0  0  0  0  0  0
   -2.0744  -12.2957   18.9583 C   0  0  0  0  0  0  0  0  0  0  0  0
   -2.0330  -12.5771   20.3794 N   0  0  0  0  0  0  0  0  0  0  0  0
   -1.1075  -18.3923   26.7874 S   0  0  0  0  0  0  0  0  0  0  0  0
   -2.6194  -19.9816   29.7840 N   0  0  0  0  0  0  0  0  0  0  0  0
   -2.7819  -21.1728   30.4056 C   0  0  0  0  0  0  0  0  0  0  0  0
   -3.1977  -23.2805   30.2970 H   0  0  0  0  0  0  0  0  0  0  0  0
   -3.6217  -23.1836   27.8310 H   0  0  0  0  0  0  0  0  0  0  0  0
   -3.3520  -21.0178   26.6417 H   0  0  0  0  0  0  0  0  0  0  0  0
   -2.3068  -14.5373   25.5130 H   0  0  0  0  0  0  0  0  0  0  0  0
   -3.4953  -15.6019   24.4246 H   0  0  0  0  0  0  0  0  0  0  0  0
   -0.6936  -14.2700   24.1017 H   0  0  0  0  0  0  0  0  0  0  0  0
   -2.6897  -15.0420   23.0199 H   0  0  0  0  0  0  0  0  0  0  0  0
   -0.6975  -16.1617   20.8121 H   0  0  0  0  0  0  0  0  0  0  0  0
   -0.2958  -17.0965   21.8431 H   0  0  0  0  0  0  0  0  0  0  0  0
   -0.1690  -14.1609   22.5625 H   0  0  0  0  0  0  0  0  0  0  0  0
   -1.8438  -13.8345   17.2508 H   0  0  0  0  0  0  0  0  0  0  0  0
   -2.1326  -11.2688   18.6266 H   0  0  0  0  0  0  0  0  0  0  0  0
   -1.8961  -11.8529   21.0676 H   0  0  0  0  0  0  0  0  0  0  0  0
   -2.6228  -21.1577   31.4802 H   0  0  0  0  0  0  0  0  0  0  0  0
  1  2  2  0
  2  3  1  0
  3  4  2  0
  4  5  1  0
  5  6  2  0
  6  7  1  0
  7  8  2  0
  8  9  1  0
  9 10  1  0
 10 11  1  0
 11 12  1  0
 12 13  1  0
 13 14  1  0
 14 15  2  0
 15 16  1  0
 16 17  2  0
 17 18  1  0
  8 19  1  0
  4 20  1  0
 20 21  2  0
 21  1  1  0
 19  5  1  0
 13  9  1  0
 18 14  1  0
  1 22  1  0
  2 23  1  0
  3 24  1  0
 10 25  1  0
 10 26  1  0
 11 27  1  0
 11 28  1  0
 12 29  1  0
 12 30  1  0
 13 31  1  0
 16 32  1  0
 17 33  1  0
 18 34  1  0
 21 35  1  0
M  END
>  <Energy>  (459) 
1247.6710303202099

>  <compound_id>  (459) 
23250

>  <target_id>  (459) 
1

>  <reference_id>  (459) 
82

>  <inspiration_ids>  (459) 
[82, 114]

>  <energy_score>  (459) 
1135.3106582506273

>  <distance_score>  (459) 
14.598171561789112

>  <path>  (459) 
/opt/xchem-fragalysis-2/maxwin/BulkDock/SCRATCH/511025/C23250-P82/C23250-P82.minimised.mol

>  <scratch_subdir>  (459) 
/opt/xchem-fragalysis-2/maxwin/BulkDock/SCRATCH/511025/C23250-P82

>  <fragmenstein_runtime>  (459) 
27.00296688079834

>  <fragmenstein_outcome>  (459) 
too moved

>  <fragmenstein_mode>  (459) 
expansion

>  <fragmenstein_error>  (459) 


$$$$
C23250-P114
     RDKit          3D

 35 38  0  0  0  0  0  0  0  0999 V2000
   -2.5325  -17.4715   29.8645 C   0  0  0  0  0  0  0  0  0  0  0  0
   -2.5053  -18.1140   28.6507 C   0  0  0  0  0  0  0  0  0  0  0  0
   -2.2843  -17.3506   27.4936 C   0  0  0  0  0  0  0  0  0  0  0  0
   -2.1741  -15.9311   27.4994 C   0  0  0  0  0  0  0  0  0  0  0  0
   -2.2143  -14.9672   25.8790 C   0  0  0  0  0  0  0  0  0  0  0  0
   -2.3351  -15.5344   24.6851 N   0  0  0  0  0  0  0  0  0  0  0  0
   -1.3796  -15.0371   23.5846 N   0  0  0  0  0  0  0  0  0  0  0  0
   -0.5784  -13.9422   23.6192 C   0  0  0  0  0  0  0  0  0  0  0  0
   -0.3786  -12.4971   22.5025 N   0  0  0  0  0  0  0  0  0  0  0  0
   -1.5617  -12.4194   20.8841 C   0  0  0  0  0  0  0  0  0  0  0  0
   -2.5578  -11.3480   20.5455 C   0  0  0  0  0  0  0  0  0  0  0  0
   -2.0504  -10.2283   21.3042 C   0  0  0  0  0  0  0  0  0  0  0  0
   -0.6223  -10.6792   21.9337 C   0  0  0  0  0  0  0  0  0  0  0  0
   -0.0321   -9.3336   21.7623 C   0  0  0  0  0  0  0  0  0  0  0  0
    0.5640   -8.6655   20.8270 N   0  0  0  0  0  0  0  0  0  0  0  0
    0.8383   -7.5298   21.4885 C   0  0  0  0  0  0  0  0  0  0  0  0
    0.4664   -7.5488   22.8047 C   0  0  0  0  0  0  0  0  0  0  0  0
   -0.5614   -8.3593   22.5874 N   0  0  0  0  0  0  0  0  0  0  0  0
   -1.7235  -13.4814   25.4379 S   0  0  0  0  0  0  0  0  0  0  0  0
   -2.0631  -15.3654   28.7065 N   0  0  0  0  0  0  0  0  0  0  0  0
   -2.2655  -16.1181   29.8394 C   0  0  0  0  0  0  0  0  0  0  0  0
   -2.6980  -18.0010   30.7936 H   0  0  0  0  0  0  0  0  0  0  0  0
   -2.6487  -19.1874   28.5743 H   0  0  0  0  0  0  0  0  0  0  0  0
   -2.1844  -17.8754   26.5516 H   0  0  0  0  0  0  0  0  0  0  0  0
   -1.9403  -13.4173   20.6536 H   0  0  0  0  0  0  0  0  0  0  0  0
   -0.9497  -12.0658   20.0578 H   0  0  0  0  0  0  0  0  0  0  0  0
   -3.6181  -11.5418   20.6374 H   0  0  0  0  0  0  0  0  0  0  0  0
   -2.5057  -11.1278   19.4650 H   0  0  0  0  0  0  0  0  0  0  0  0
   -2.7871   -9.8100   22.0007 H   0  0  0  0  0  0  0  0  0  0  0  0
   -1.9504   -9.4083   20.5726 H   0  0  0  0  0  0  0  0  0  0  0  0
   -0.3961  -10.3963   22.8956 H   0  0  0  0  0  0  0  0  0  0  0  0
    1.3608   -6.7172   20.9964 H   0  0  0  0  0  0  0  0  0  0  0  0
    0.5454   -6.8553   23.6292 H   0  0  0  0  0  0  0  0  0  0  0  0
   -1.4432   -8.3601   23.0892 H   0  0  0  0  0  0  0  0  0  0  0  0
   -2.2102  -15.5468   30.7635 H   0  0  0  0  0  0  0  0  0  0  0  0
  1  2  2  0
  2  3  1  0
  3  4  2  0
  4  5  1  0
  5  6  2  0
  6  7  1  0
  7  8  2  0
  8  9  1  0
  9 10  1  0
 10 11  1  0
 11 12  1  0
 12 13  1  0
 13 14  1  0
 14 15  2  0
 15 16  1  0
 16 17  2  0
 17 18  1  0
  8 19  1  0
  4 20  1  0
 20 21  2  0
 21  1  1  0
 19  5  1  0
 13  9  1  0
 18 14  1  0
  1 22  1  0
  2 23  1  0
  3 24  1  0
 10 25  1  0
 10 26  1  0
 11 27  1  0
 11 28  1  0
 12 29  1  0
 12 30  1  0
 13 31  1  0
 16 32  1  0
 17 33  1  0
 18 34  1  0
 21 35  1  0
M  END
>  <Energy>  (460) 
598.39316610074331

>  <compound_id>  (460) 
23250

>  <target_id>  (460) 
1

>  <reference_id>  (460) 
114

>  <inspiration_ids>  (460) 
[82, 114]

>  <energy_score>  (460) 
486.03279403115266

>  <distance_score>  (460) 
13.643836479770103

>  <path>  (460) 
/opt/xchem-fragalysis-2/maxwin/BulkDock/SCRATCH/511025/C23250-P114/C23250-P114.minimised.mol

>  <scratch_subdir>  (460) 
/opt/xchem-fragalysis-2/maxwin/BulkDock/SCRATCH/511025/C23250-P114

>  <fragmenstein_runtime>  (460) 
18.869128227233887

>  <fragmenstein_outcome>  (460) 
too moved

>  <fragmenstein_mode>  (460) 
expansion

>  <fragmenstein_error>  (460) 


$$$$
C52671-P82
     RDKit          3D

 38 41  0  0  0  0  0  0  0  0999 V2000
   -2.2040  -19.8162   19.3653 C   0  0  0  0  0  0  0  0  0  0  0  0
   -3.3151  -19.1011   18.9437 C   0  0  0  0  0  0  0  0  0  0  0  0
   -3.2985  -17.6994   19.0236 C   0  0  0  0  0  0  0  0  0  0  0  0
   -2.1827  -17.0145   19.5486 C   0  0  0  0  0  0  0  0  0  0  0  0
   -1.9397  -15.4701   19.3645 C   0  0  0  0  0  0  0  0  0  0  0  0
   -1.8304  -14.7140   18.2505 N   0  0  0  0  0  0  0  0  0  0  0  0
   -1.9397  -13.2156   18.1692 N   0  0  0  0  0  0  0  0  0  0  0  0
   -2.0773  -12.5484   19.3523 C   0  0  0  0  0  0  0  0  0  0  0  0
   -2.4633  -11.1312   19.4824 N   0  0  0  0  0  0  0  0  0  0  0  0
   -2.8522  -10.6767   18.1249 C   0  0  0  0  0  0  0  0  0  0  0  0
   -3.1024   -9.1674   17.8577 C   0  0  0  0  0  0  0  0  0  0  0  0
   -1.8709   -8.3601   17.6874 C   0  0  0  0  0  0  0  0  0  0  0  0
   -0.9168   -8.7098   18.8053 C   0  0  0  0  0  0  0  0  0  0  0  0
    0.5564   -8.0390   18.3370 C   0  0  0  0  0  0  0  0  0  0  0  0
    0.7817   -6.6896   18.0427 C   0  0  0  0  0  0  0  0  0  0  0  0
    2.0141   -6.5824   17.4530 N   0  0  0  0  0  0  0  0  0  0  0  0
    2.4820   -7.8448   17.2949 C   0  0  0  0  0  0  0  0  0  0  0  0
    1.6593   -8.7189   17.8306 N   0  0  0  0  0  0  0  0  0  0  0  0
   -1.5973   -9.9275   20.0068 C   0  0  0  0  0  0  0  0  0  0  0  0
   -2.1039  -14.3775   20.6442 S   0  0  0  0  0  0  0  0  0  0  0  0
   -1.1326  -17.7404   20.0309 N   0  0  0  0  0  0  0  0  0  0  0  0
   -1.1501  -19.0979   19.9100 C   0  0  0  0  0  0  0  0  0  0  0  0
   -2.1670  -20.8975   19.2997 H   0  0  0  0  0  0  0  0  0  0  0  0
   -4.1679  -19.6159   18.5091 H   0  0  0  0  0  0  0  0  0  0  0  0
   -4.1143  -17.1733   18.5411 H   0  0  0  0  0  0  0  0  0  0  0  0
   -3.6820  -11.2781   17.7358 H   0  0  0  0  0  0  0  0  0  0  0  0
   -1.9667  -10.9049   17.5800 H   0  0  0  0  0  0  0  0  0  0  0  0
   -3.7144   -9.0570   16.9536 H   0  0  0  0  0  0  0  0  0  0  0  0
   -3.5999   -8.6446   18.6745 H   0  0  0  0  0  0  0  0  0  0  0  0
   -2.1168   -7.2907   17.6928 H   0  0  0  0  0  0  0  0  0  0  0  0
   -1.4368   -8.5411   16.6991 H   0  0  0  0  0  0  0  0  0  0  0  0
   -0.9540   -8.0409   19.6157 H   0  0  0  0  0  0  0  0  0  0  0  0
    0.1563   -5.8175   18.1487 H   0  0  0  0  0  0  0  0  0  0  0  0
    2.4516   -5.7331   17.1235 H   0  0  0  0  0  0  0  0  0  0  0  0
    3.4194   -8.0765   16.8077 H   0  0  0  0  0  0  0  0  0  0  0  0
   -2.3471   -9.3181   20.5358 H   0  0  0  0  0  0  0  0  0  0  0  0
   -0.9277  -10.2131   20.8310 H   0  0  0  0  0  0  0  0  0  0  0  0
   -0.2642  -19.6025   20.2903 H   0  0  0  0  0  0  0  0  0  0  0  0
  1  2  2  0
  2  3  1  0
  3  4  2  0
  4  5  1  0
  5  6  2  0
  6  7  1  0
  7  8  2  0
  8  9  1  0
  9 10  1  0
 10 11  1  0
 11 12  1  0
 12 13  1  0
 13 14  1  0
 14 15  2  0
 15 16  1  0
 16 17  1  0
 17 18  2  0
 13 19  1  0
  8 20  1  0
  4 21  1  0
 21 22  2  0
 22  1  1  0
 20  5  1  0
 19  9  1  0
 18 14  1  0
  1 23  1  0
  2 24  1  0
  3 25  1  0
 10 26  1  0
 10 27  1  0
 11 28  1  0
 11 29  1  0
 12 30  1  0
 12 31  1  0
 13 32  1  0
 15 33  1  0
 16 34  1  0
 17 35  1  0
 19 36  1  0
 19 37  1  0
 22 38  1  0
M  END
>  <Energy>  (461) 
244.55142926801182

>  <compound_id>  (461) 
52671

>  <target_id>  (461) 
1

>  <reference_id>  (461) 
82

>  <inspiration_ids>  (461) 
[82, 114]

>  <energy_score>  (461) 
105.65647939131895

>  <distance_score>  (461) 
15.30011185138548

>  <path>  (461) 
/opt/xchem-fragalysis-2/maxwin/BulkDock/SCRATCH/511025/C52671-P82/C52671-P82.minimised.mol

>  <scratch_subdir>  (461) 
/opt/xchem-fragalysis-2/maxwin/BulkDock/SCRATCH/511025/C52671-P82

>  <fragmenstein_runtime>  (461) 
27.138867378234863

>  <fragmenstein_outcome>  (461) 
too moved

>  <fragmenstein_mode>  (461) 
expansion

>  <fragmenstein_error>  (461) 


$$$$
C52671-P114
     RDKit          3D

 38 41  0  0  0  0  0  0  0  0999 V2000
   -4.8216  -23.8576   23.3466 C   0  0  0  0  0  0  0  0  0  0  0  0
   -5.3785  -22.8449   24.0957 C   0  0  0  0  0  0  0  0  0  0  0  0
   -4.6092  -21.7102   24.3205 C   0  0  0  0  0  0  0  0  0  0  0  0
   -3.2766  -21.5775   23.7715 C   0  0  0  0  0  0  0  0  0  0  0  0
   -2.2633  -20.4044   24.1643 C   0  0  0  0  0  0  0  0  0  0  0  0
   -1.4515  -19.4669   23.6345 N   0  0  0  0  0  0  0  0  0  0  0  0
   -1.4415  -18.4585   25.2428 N   0  0  0  0  0  0  0  0  0  0  0  0
    0.0455  -18.7154   25.7160 C   0  0  0  0  0  0  0  0  0  0  0  0
    1.1651  -19.4977   24.4845 N   0  0  0  0  0  0  0  0  0  0  0  0
    1.0550  -20.6900   23.2384 C   0  0  0  0  0  0  0  0  0  0  0  0
    2.0778  -22.0070   22.9755 C   0  0  0  0  0  0  0  0  0  0  0  0
    3.5417  -21.7153   23.1391 C   0  0  0  0  0  0  0  0  0  0  0  0
    3.7848  -20.2311   22.9130 C   0  0  0  0  0  0  0  0  0  0  0  0
    5.4173  -20.1238   22.5422 C   0  0  0  0  0  0  0  0  0  0  0  0
    6.0915  -19.3144   21.6237 C   0  0  0  0  0  0  0  0  0  0  0  0
    7.4266  -19.3949   21.8901 N   0  0  0  0  0  0  0  0  0  0  0  0
    7.5542  -20.2399   22.9449 C   0  0  0  0  0  0  0  0  0  0  0  0
    6.3891  -20.7081   23.3493 N   0  0  0  0  0  0  0  0  0  0  0  0
    2.9674  -19.4203   24.3304 C   0  0  0  0  0  0  0  0  0  0  0  0
   -2.0736  -19.1918   26.1794 S   0  0  0  0  0  0  0  0  0  0  0  0
   -2.7342  -22.6018   23.0807 N   0  0  0  0  0  0  0  0  0  0  0  0
   -3.5228  -23.6935   22.8787 C   0  0  0  0  0  0  0  0  0  0  0  0
   -5.3796  -24.7572   23.1188 H   0  0  0  0  0  0  0  0  0  0  0  0
   -6.3763  -22.9355   24.5049 H   0  0  0  0  0  0  0  0  0  0  0  0
   -5.0236  -20.9363   24.9725 H   0  0  0  0  0  0  0  0  0  0  0  0
    1.4326  -20.1948   22.3536 H   0  0  0  0  0  0  0  0  0  0  0  0
    0.1116  -21.2308   23.3572 H   0  0  0  0  0  0  0  0  0  0  0  0
    1.7788  -22.8802   23.5750 H   0  0  0  0  0  0  0  0  0  0  0  0
    1.9385  -22.3618   21.9462 H   0  0  0  0  0  0  0  0  0  0  0  0
    3.8817  -22.0051   24.1408 H   0  0  0  0  0  0  0  0  0  0  0  0
    4.1113  -22.3350   22.4352 H   0  0  0  0  0  0  0  0  0  0  0  0
    3.3090  -19.9055   21.9847 H   0  0  0  0  0  0  0  0  0  0  0  0
    5.7578  -18.6037   20.9000 H   0  0  0  0  0  0  0  0  0  0  0  0
    8.1706  -18.9004   21.4195 H   0  0  0  0  0  0  0  0  0  0  0  0
    8.5116  -20.4876   23.3818 H   0  0  0  0  0  0  0  0  0  0  0  0
    3.0881  -18.3468   24.4508 H   0  0  0  0  0  0  0  0  0  0  0  0
    3.4985  -19.8950   25.1462 H   0  0  0  0  0  0  0  0  0  0  0  0
   -3.0561  -24.4767   22.2851 H   0  0  0  0  0  0  0  0  0  0  0  0
  1  2  2  0
  2  3  1  0
  3  4  2  0
  4  5  1  0
  5  6  2  0
  6  7  1  0
  7  8  2  0
  8  9  1  0
  9 10  1  0
 10 11  1  0
 11 12  1  0
 12 13  1  0
 13 14  1  0
 14 15  2  0
 15 16  1  0
 16 17  1  0
 17 18  2  0
 13 19  1  0
  8 20  1  0
  4 21  1  0
 21 22  2  0
 22  1  1  0
 20  5  1  0
 19  9  1  0
 18 14  1  0
  1 23  1  0
  2 24  1  0
  3 25  1  0
 10 26  1  0
 10 27  1  0
 11 28  1  0
 11 29  1  0
 12 30  1  0
 12 31  1  0
 13 32  1  0
 15 33  1  0
 16 34  1  0
 17 35  1  0
 19 36  1  0
 19 37  1  0
 22 38  1  0
M  END
>  <Energy>  (462) 
617.9094734713176

>  <compound_id>  (462) 
52671

>  <target_id>  (462) 
1

>  <reference_id>  (462) 
114

>  <inspiration_ids>  (462) 
[82, 114]

>  <energy_score>  (462) 
479.014523594617

>  <distance_score>  (462) 
15.941311089047517

>  <path>  (462) 
/opt/xchem-fragalysis-2/maxwin/BulkDock/SCRATCH/511025/C52671-P114/C52671-P114.minimised.mol

>  <scratch_subdir>  (462) 
/opt/xchem-fragalysis-2/maxwin/BulkDock/SCRATCH/511025/C52671-P114

>  <fragmenstein_runtime>  (462) 
20.24786400794983

>  <fragmenstein_outcome>  (462) 
too moved

>  <fragmenstein_mode>  (462) 
expansion

>  <fragmenstein_error>  (462) 


$$$$
C23251-P82
     RDKit          3D

 37 39  0  0  0  0  0  0  0  0999 V2000
    2.2996  -14.9264   17.5416 C   0  0  0  0  0  0  0  0  0  0  0  0
    3.0982  -14.5372   18.5692 C   0  0  0  0  0  0  0  0  0  0  0  0
    4.3765  -15.1773   18.2069 C   0  0  0  0  0  0  0  0  0  0  0  0
    2.3972  -14.6117   20.0634 C   0  0  0  0  0  0  0  0  0  0  0  0
    0.9025  -15.8272   20.3559 N   0  0  0  0  0  0  0  0  0  0  0  0
    0.0120  -16.8808   20.7869 C   0  0  0  0  0  0  0  0  0  0  0  0
    0.4149  -18.0032   21.2197 N   0  0  0  0  0  0  0  0  0  0  0  0
   -0.2579  -18.6407   22.1614 N   0  0  0  0  0  0  0  0  0  0  0  0
   -1.2643  -19.1691   21.6488 C   0  0  0  0  0  0  0  0  0  0  0  0
   -2.0287  -20.7844   22.1045 C   0  0  0  0  0  0  0  0  0  0  0  0
   -2.8184  -21.5965   21.2511 C   0  0  0  0  0  0  0  0  0  0  0  0
   -3.5723  -22.6722   21.7729 C   0  0  0  0  0  0  0  0  0  0  0  0
   -3.5554  -22.9427   23.1333 C   0  0  0  0  0  0  0  0  0  0  0  0
   -2.7668  -22.1277   23.9095 C   0  0  0  0  0  0  0  0  0  0  0  0
   -2.0429  -21.0813   23.4190 N   0  0  0  0  0  0  0  0  0  0  0  0
   -1.5991  -17.8605   19.9935 S   0  0  0  0  0  0  0  0  0  0  0  0
    3.7447  -13.2346   20.5875 C   0  0  0  0  0  0  0  0  0  0  0  0
    3.9840  -12.3893   21.5536 N   0  0  0  0  0  0  0  0  0  0  0  0
    5.1627  -11.6725   21.1122 C   0  0  0  0  0  0  0  0  0  0  0  0
    5.8140  -12.1784   20.0759 C   0  0  0  0  0  0  0  0  0  0  0  0
    4.7456  -12.8320   19.6071 N   0  0  0  0  0  0  0  0  0  0  0  0
    2.3548  -15.8945   17.9859 H   0  0  0  0  0  0  0  0  0  0  0  0
    2.6246  -15.2921   16.5955 H   0  0  0  0  0  0  0  0  0  0  0  0
    1.4255  -14.2796   17.4656 H   0  0  0  0  0  0  0  0  0  0  0  0
    3.2586  -13.5392   18.2391 H   0  0  0  0  0  0  0  0  0  0  0  0
    4.5394  -15.3818   17.1706 H   0  0  0  0  0  0  0  0  0  0  0  0
    5.0531  -14.4419   18.4954 H   0  0  0  0  0  0  0  0  0  0  0  0
    4.7248  -16.0338   18.7584 H   0  0  0  0  0  0  0  0  0  0  0  0
    2.6568  -14.7166   21.0809 H   0  0  0  0  0  0  0  0  0  0  0  0
    0.7266  -16.0249   19.3963 H   0  0  0  0  0  0  0  0  0  0  0  0
   -2.9265  -21.3490   20.1995 H   0  0  0  0  0  0  0  0  0  0  0  0
   -4.1943  -23.2636   21.1068 H   0  0  0  0  0  0  0  0  0  0  0  0
   -4.1325  -23.7514   23.5639 H   0  0  0  0  0  0  0  0  0  0  0  0
   -2.6851  -22.2696   24.9830 H   0  0  0  0  0  0  0  0  0  0  0  0
    5.5287  -10.9659   21.8341 H   0  0  0  0  0  0  0  0  0  0  0  0
    6.5874  -11.6618   19.5648 H   0  0  0  0  0  0  0  0  0  0  0  0
    4.3458  -12.4107   18.7952 H   0  0  0  0  0  0  0  0  0  0  0  0
  1  2  1  0
  2  3  1  0
  2  4  1  0
  4  5  1  0
  5  6  1  0
  6  7  2  0
  7  8  1  0
  8  9  2  0
  9 10  1  0
 10 11  2  0
 11 12  1  0
 12 13  2  0
 13 14  1  0
 14 15  2  0
  9 16  1  0
  4 17  1  0
 17 18  2  0
 18 19  1  0
 19 20  2  0
 20 21  1  0
 16  6  1  0
 21 17  1  0
 15 10  1  0
  1 22  1  0
  1 23  1  0
  1 24  1  0
  2 25  1  0
  3 26  1  0
  3 27  1  0
  3 28  1  0
  4 29  1  0
  5 30  1  0
 11 31  1  0
 12 32  1  0
 13 33  1  0
 14 34  1  0
 19 35  1  0
 20 36  1  0
 21 37  1  0
M  END
>  <Energy>  (463) 
572.47731446236048

>  <compound_id>  (463) 
23251

>  <target_id>  (463) 
1

>  <reference_id>  (463) 
82

>  <inspiration_ids>  (463) 
[82, 114]

>  <energy_score>  (463) 
446.3487066314433

>  <distance_score>  (463) 
13.58420225113871

>  <path>  (463) 
/opt/xchem-fragalysis-2/maxwin/BulkDock/SCRATCH/511025/C23251-P82/C23251-P82.minimised.mol

>  <scratch_subdir>  (463) 
/opt/xchem-fragalysis-2/maxwin/BulkDock/SCRATCH/511025/C23251-P82

>  <fragmenstein_runtime>  (463) 
20.55935525894165

>  <fragmenstein_outcome>  (463) 
too moved

>  <fragmenstein_mode>  (463) 
expansion

>  <fragmenstein_error>  (463) 


$$$$
C23251-P114
     RDKit          3D

 37 39  0  0  0  0  0  0  0  0999 V2000
   -1.4550   -6.9987   22.8501 C   0  0  0  0  0  0  0  0  0  0  0  0
   -2.2072   -8.0768   22.0541 C   0  0  0  0  0  0  0  0  0  0  0  0
   -1.2214   -9.0708   21.4342 C   0  0  0  0  0  0  0  0  0  0  0  0
   -3.1540   -7.4515   20.9748 C   0  0  0  0  0  0  0  0  0  0  0  0
   -4.2521   -8.4120   20.6186 N   0  0  0  0  0  0  0  0  0  0  0  0
   -5.1605   -8.9148   21.5431 C   0  0  0  0  0  0  0  0  0  0  0  0
   -5.3382   -8.5108   22.7873 N   0  0  0  0  0  0  0  0  0  0  0  0
   -6.2106   -9.3179   23.5365 N   0  0  0  0  0  0  0  0  0  0  0  0
   -6.7290  -10.3372   22.8657 C   0  0  0  0  0  0  0  0  0  0  0  0
   -7.5675  -11.4777   23.4603 C   0  0  0  0  0  0  0  0  0  0  0  0
   -8.6456  -12.0863   22.8147 C   0  0  0  0  0  0  0  0  0  0  0  0
   -9.3778  -13.1116   23.4574 C   0  0  0  0  0  0  0  0  0  0  0  0
   -9.0328  -13.5234   24.7376 C   0  0  0  0  0  0  0  0  0  0  0  0
   -7.9719  -12.8744   25.3292 C   0  0  0  0  0  0  0  0  0  0  0  0
   -7.2467  -11.8898   24.7234 N   0  0  0  0  0  0  0  0  0  0  0  0
   -6.3081  -10.2034   21.1628 S   0  0  0  0  0  0  0  0  0  0  0  0
   -2.2439   -6.8948   19.8030 C   0  0  0  0  0  0  0  0  0  0  0  0
   -1.8599   -7.5100   18.6923 N   0  0  0  0  0  0  0  0  0  0  0  0
   -0.8256   -6.7633   18.1615 C   0  0  0  0  0  0  0  0  0  0  0  0
   -0.6063   -5.6373   18.9116 C   0  0  0  0  0  0  0  0  0  0  0  0
   -1.5416   -5.7006   19.9133 N   0  0  0  0  0  0  0  0  0  0  0  0
   -2.1406   -6.2191   23.1978 H   0  0  0  0  0  0  0  0  0  0  0  0
   -0.6599   -6.5283   22.2654 H   0  0  0  0  0  0  0  0  0  0  0  0
   -0.9769   -7.4246   23.7358 H   0  0  0  0  0  0  0  0  0  0  0  0
   -2.8069   -8.6255   22.7879 H   0  0  0  0  0  0  0  0  0  0  0  0
   -1.7490   -9.8318   20.8507 H   0  0  0  0  0  0  0  0  0  0  0  0
   -0.6373   -9.5855   22.1925 H   0  0  0  0  0  0  0  0  0  0  0  0
   -0.4888   -8.5722   20.7936 H   0  0  0  0  0  0  0  0  0  0  0  0
   -3.6532   -6.5725   21.4055 H   0  0  0  0  0  0  0  0  0  0  0  0
   -4.0150   -8.9879   19.8158 H   0  0  0  0  0  0  0  0  0  0  0  0
   -8.9468  -11.7611   21.8230 H   0  0  0  0  0  0  0  0  0  0  0  0
  -10.2221  -13.5702   22.9473 H   0  0  0  0  0  0  0  0  0  0  0  0
   -9.5812  -14.3005   25.2552 H   0  0  0  0  0  0  0  0  0  0  0  0
   -7.6517  -13.1178   26.3383 H   0  0  0  0  0  0  0  0  0  0  0  0
   -0.3027   -7.0890   17.2723 H   0  0  0  0  0  0  0  0  0  0  0  0
    0.0992   -4.8239   18.8292 H   0  0  0  0  0  0  0  0  0  0  0  0
   -1.6353   -5.0450   20.6763 H   0  0  0  0  0  0  0  0  0  0  0  0
  1  2  1  0
  2  3  1  0
  2  4  1  0
  4  5  1  0
  5  6  1  0
  6  7  2  0
  7  8  1  0
  8  9  2  0
  9 10  1  0
 10 11  2  0
 11 12  1  0
 12 13  2  0
 13 14  1  0
 14 15  2  0
  9 16  1  0
  4 17  1  0
 17 18  2  0
 18 19  1  0
 19 20  2  0
 20 21  1  0
 16  6  1  0
 21 17  1  0
 15 10  1  0
  1 22  1  0
  1 23  1  0
  1 24  1  0
  2 25  1  0
  3 26  1  0
  3 27  1  0
  3 28  1  0
  4 29  1  0
  5 30  1  0
 11 31  1  0
 12 32  1  0
 13 33  1  0
 14 34  1  0
 19 35  1  0
 20 36  1  0
 21 37  1  0
M  END
>  <Energy>  (464) 
48.304477363909513

>  <compound_id>  (464) 
23251

>  <target_id>  (464) 
1

>  <reference_id>  (464) 
114

>  <inspiration_ids>  (464) 
[82, 114]

>  <energy_score>  (464) 
-77.82413046700174

>  <distance_score>  (464) 
14.91174138130764

>  <path>  (464) 
/opt/xchem-fragalysis-2/maxwin/BulkDock/SCRATCH/511025/C23251-P114/C23251-P114.minimised.mol

>  <scratch_subdir>  (464) 
/opt/xchem-fragalysis-2/maxwin/BulkDock/SCRATCH/511025/C23251-P114

>  <fragmenstein_runtime>  (464) 
27.146433353424072

>  <fragmenstein_outcome>  (464) 
too moved

>  <fragmenstein_mode>  (464) 
expansion

>  <fragmenstein_error>  (464) 


$$$$
C23252-P82
     RDKit          3D

 38 40  0  0  0  0  0  0  0  0999 V2000
   -3.1213  -11.2541   18.2102 C   0  0  0  0  0  0  0  0  0  0  0  0
   -3.1290  -10.5491   19.3781 O   0  0  0  0  0  0  0  0  0  0  0  0
   -3.1319  -11.2883   20.5366 C   0  0  0  0  0  0  0  0  0  0  0  0
   -1.8385  -12.0292   20.6171 C   0  0  0  0  0  0  0  0  0  0  0  0
   -1.0384  -11.8841   21.8942 N   0  0  0  0  0  0  0  0  0  0  0  0
   -0.3826  -10.4090   21.8760 C   0  0  0  0  0  0  0  0  0  0  0  0
   -0.7982   -9.2317   21.0456 C   0  0  0  0  0  0  0  0  0  0  0  0
   -1.9686   -8.9063   20.5740 N   0  0  0  0  0  0  0  0  0  0  0  0
   -1.7113   -8.7000   19.2237 C   0  0  0  0  0  0  0  0  0  0  0  0
   -0.3925   -8.4148   19.0449 C   0  0  0  0  0  0  0  0  0  0  0  0
    0.1656   -8.5567   20.3103 N   0  0  0  0  0  0  0  0  0  0  0  0
   -0.3078  -13.4128   22.8151 C   0  0  0  0  0  0  0  0  0  0  0  0
   -1.0998  -14.7839   22.8132 N   0  0  0  0  0  0  0  0  0  0  0  0
   -2.1636  -15.3859   24.2067 N   0  0  0  0  0  0  0  0  0  0  0  0
   -2.0017  -14.7535   25.4191 C   0  0  0  0  0  0  0  0  0  0  0  0
   -2.0675  -15.5376   27.1632 C   0  0  0  0  0  0  0  0  0  0  0  0
   -2.3309  -16.9838   27.3444 C   0  0  0  0  0  0  0  0  0  0  0  0
   -2.5694  -17.6306   28.5685 C   0  0  0  0  0  0  0  0  0  0  0  0
   -2.5087  -16.8793   29.7105 C   0  0  0  0  0  0  0  0  0  0  0  0
   -2.1825  -15.5480   29.5403 C   0  0  0  0  0  0  0  0  0  0  0  0
   -1.9703  -14.8896   28.3317 N   0  0  0  0  0  0  0  0  0  0  0  0
   -0.5183  -14.3167   24.3756 S   0  0  0  0  0  0  0  0  0  0  0  0
   -2.3220  -11.9863   18.0991 H   0  0  0  0  0  0  0  0  0  0  0  0
   -3.0882  -10.5081   17.4217 H   0  0  0  0  0  0  0  0  0  0  0  0
   -4.1006  -11.7044   18.2204 H   0  0  0  0  0  0  0  0  0  0  0  0
   -4.0073  -11.9147   20.4390 H   0  0  0  0  0  0  0  0  0  0  0  0
   -3.2706  -10.6062   21.3715 H   0  0  0  0  0  0  0  0  0  0  0  0
   -1.2289  -11.7196   19.7895 H   0  0  0  0  0  0  0  0  0  0  0  0
   -2.0331  -13.0704   20.4853 H   0  0  0  0  0  0  0  0  0  0  0  0
   -0.4384   -9.9522   22.8197 H   0  0  0  0  0  0  0  0  0  0  0  0
    0.6399  -10.5562   21.6379 H   0  0  0  0  0  0  0  0  0  0  0  0
   -2.4778   -8.6555   18.4669 H   0  0  0  0  0  0  0  0  0  0  0  0
    0.1829   -8.4107   18.1330 H   0  0  0  0  0  0  0  0  0  0  0  0
    1.0648   -8.9729   20.3154 H   0  0  0  0  0  0  0  0  0  0  0  0
   -2.3269  -17.6128   26.4603 H   0  0  0  0  0  0  0  0  0  0  0  0
   -2.7942  -18.6923   28.5901 H   0  0  0  0  0  0  0  0  0  0  0  0
   -2.6775  -17.3038   30.6913 H   0  0  0  0  0  0  0  0  0  0  0  0
   -2.0897  -14.8948   30.4063 H   0  0  0  0  0  0  0  0  0  0  0  0
  1  2  1  0
  2  3  1  0
  3  4  1  0
  4  5  1  0
  5  6  1  0
  6  7  1  0
  7  8  2  0
  8  9  1  0
  9 10  2  0
 10 11  1  0
  5 12  1  0
 12 13  2  0
 13 14  1  0
 14 15  2  0
 15 16  1  0
 16 17  2  0
 17 18  1  0
 18 19  2  0
 19 20  1  0
 20 21  2  0
 15 22  1  0
 11  7  1  0
 22 12  1  0
 21 16  1  0
  1 23  1  0
  1 24  1  0
  1 25  1  0
  3 26  1  0
  3 27  1  0
  4 28  1  0
  4 29  1  0
  6 30  1  0
  6 31  1  0
  9 32  1  0
 10 33  1  0
 11 34  1  0
 17 35  1  0
 18 36  1  0
 19 37  1  0
 20 38  1  0
M  END
>  <Energy>  (465) 
627.13296649976667

>  <compound_id>  (465) 
23252

>  <target_id>  (465) 
1

>  <reference_id>  (465) 
82

>  <inspiration_ids>  (465) 
[82, 114]

>  <energy_score>  (465) 
453.17483566103897

>  <distance_score>  (465) 
14.106831334381454

>  <path>  (465) 
/opt/xchem-fragalysis-2/maxwin/BulkDock/SCRATCH/511025/C23252-P82/C23252-P82.minimised.mol

>  <scratch_subdir>  (465) 
/opt/xchem-fragalysis-2/maxwin/BulkDock/SCRATCH/511025/C23252-P82

>  <fragmenstein_runtime>  (465) 
28.490491151809692

>  <fragmenstein_outcome>  (465) 
too moved

>  <fragmenstein_mode>  (465) 
expansion

>  <fragmenstein_error>  (465) 


$$$$
C23252-P114
     RDKit          3D

 38 40  0  0  0  0  0  0  0  0999 V2000
   -1.9107   -9.4965   20.6123 C   0  0  0  0  0  0  0  0  0  0  0  0
   -1.3340  -10.6586   21.1713 O   0  0  0  0  0  0  0  0  0  0  0  0
   -0.0599  -10.3875   21.8473 C   0  0  0  0  0  0  0  0  0  0  0  0
    0.6256  -11.8073   22.8418 C   0  0  0  0  0  0  0  0  0  0  0  0
    0.7794  -13.7126   23.5731 N   0  0  0  0  0  0  0  0  0  0  0  0
    2.5465  -13.1185   23.8028 C   0  0  0  0  0  0  0  0  0  0  0  0
    3.5007  -12.4034   22.3700 C   0  0  0  0  0  0  0  0  0  0  0  0
    4.3823  -11.3693   22.2020 N   0  0  0  0  0  0  0  0  0  0  0  0
    5.3761  -11.7622   21.0251 C   0  0  0  0  0  0  0  0  0  0  0  0
    4.8325  -12.7712   20.3542 C   0  0  0  0  0  0  0  0  0  0  0  0
    3.7250  -13.1114   21.1429 N   0  0  0  0  0  0  0  0  0  0  0  0
   -0.5889  -14.3039   24.2710 C   0  0  0  0  0  0  0  0  0  0  0  0
   -1.4387  -15.0896   23.6333 N   0  0  0  0  0  0  0  0  0  0  0  0
   -2.7106  -15.5520   24.1702 N   0  0  0  0  0  0  0  0  0  0  0  0
   -2.5458  -15.7704   25.4101 C   0  0  0  0  0  0  0  0  0  0  0  0
   -2.4445  -17.0267   26.7932 C   0  0  0  0  0  0  0  0  0  0  0  0
   -2.5304  -16.6616   28.1621 C   0  0  0  0  0  0  0  0  0  0  0  0
   -2.6526  -17.6008   29.1971 C   0  0  0  0  0  0  0  0  0  0  0  0
   -2.5583  -18.9332   28.8888 C   0  0  0  0  0  0  0  0  0  0  0  0
   -2.1898  -19.2191   27.5911 C   0  0  0  0  0  0  0  0  0  0  0  0
   -1.9740  -18.2947   26.5739 N   0  0  0  0  0  0  0  0  0  0  0  0
   -1.9141  -14.0283   25.7214 S   0  0  0  0  0  0  0  0  0  0  0  0
   -2.6917   -9.8068   19.9167 H   0  0  0  0  0  0  0  0  0  0  0  0
   -1.1733   -8.9203   20.0584 H   0  0  0  0  0  0  0  0  0  0  0  0
   -2.3461   -8.8838   21.4057 H   0  0  0  0  0  0  0  0  0  0  0  0
   -0.2981   -9.5507   22.5089 H   0  0  0  0  0  0  0  0  0  0  0  0
    0.6788   -9.9614   21.1790 H   0  0  0  0  0  0  0  0  0  0  0  0
   -0.3686  -11.6484   22.5493 H   0  0  0  0  0  0  0  0  0  0  0  0
   -0.1392  -12.6035   22.6225 H   0  0  0  0  0  0  0  0  0  0  0  0
    3.2413  -13.8669   24.1591 H   0  0  0  0  0  0  0  0  0  0  0  0
    2.3056  -12.2384   24.3392 H   0  0  0  0  0  0  0  0  0  0  0  0
    6.4185  -11.4491   21.0490 H   0  0  0  0  0  0  0  0  0  0  0  0
    5.1431  -13.3642   19.5188 H   0  0  0  0  0  0  0  0  0  0  0  0
    3.1835  -13.9378   20.9537 H   0  0  0  0  0  0  0  0  0  0  0  0
   -2.4749  -15.6254   28.4515 H   0  0  0  0  0  0  0  0  0  0  0  0
   -2.8092  -17.2736   30.2199 H   0  0  0  0  0  0  0  0  0  0  0  0
   -2.6981  -19.7144   29.6238 H   0  0  0  0  0  0  0  0  0  0  0  0
   -2.1064  -20.2628   27.2968 H   0  0  0  0  0  0  0  0  0  0  0  0
  1  2  1  0
  2  3  1  0
  3  4  1  0
  4  5  1  0
  5  6  1  0
  6  7  1  0
  7  8  2  0
  8  9  1  0
  9 10  2  0
 10 11  1  0
  5 12  1  0
 12 13  2  0
 13 14  1  0
 14 15  2  0
 15 16  1  0
 16 17  2  0
 17 18  1  0
 18 19  2  0
 19 20  1  0
 20 21  2  0
 15 22  1  0
 11  7  1  0
 22 12  1  0
 21 16  1  0
  1 23  1  0
  1 24  1  0
  1 25  1  0
  3 26  1  0
  3 27  1  0
  4 28  1  0
  4 29  1  0
  6 30  1  0
  6 31  1  0
  9 32  1  0
 10 33  1  0
 11 34  1  0
 17 35  1  0
 18 36  1  0
 19 37  1  0
 20 38  1  0
M  END
>  <Energy>  (466) 
702.33482719491008

>  <compound_id>  (466) 
23252

>  <target_id>  (466) 
1

>  <reference_id>  (466) 
114

>  <inspiration_ids>  (466) 
[82, 114]

>  <energy_score>  (466) 
528.3766963561759

>  <distance_score>  (466) 
13.329271742060266

>  <path>  (466) 
/opt/xchem-fragalysis-2/maxwin/BulkDock/SCRATCH/511025/C23252-P114/C23252-P114.minimised.mol

>  <scratch_subdir>  (466) 
/opt/xchem-fragalysis-2/maxwin/BulkDock/SCRATCH/511025/C23252-P114

>  <fragmenstein_runtime>  (466) 
17.75623869895935

>  <fragmenstein_outcome>  (466) 
too moved

>  <fragmenstein_mode>  (466) 
expansion

>  <fragmenstein_error>  (466) 


$$$$
C52672-P82
     RDKit          3D

 48 49  0  0  0  0  0  0  0  0999 V2000
    6.8534  -14.8805   19.0670 C   0  0  0  0  0  0  0  0  0  0  0  0
    6.1536  -14.0804   17.9739 C   0  0  0  0  0  0  0  0  0  0  0  0
    6.2817  -14.8698   16.6503 C   0  0  0  0  0  0  0  0  0  0  0  0
    4.5819  -13.8329   18.2459 C   0  0  0  0  0  0  0  0  0  0  0  0
    4.2928  -12.6761   18.2376 O   0  0  0  0  0  0  0  0  0  0  0  0
    3.7276  -15.0261   18.3598 N   0  0  0  0  0  0  0  0  0  0  0  0
    1.9971  -15.1908   18.6389 C   0  0  0  0  0  0  0  0  0  0  0  0
    0.4711  -16.2937   19.7077 C   0  0  0  0  0  0  0  0  0  0  0  0
   -1.4807  -16.7243   19.7465 N   0  0  0  0  0  0  0  0  0  0  0  0
   -1.4924  -15.2641   19.2960 C   0  0  0  0  0  0  0  0  0  0  0  0
   -1.7407  -13.9089   17.9676 C   0  0  0  0  0  0  0  0  0  0  0  0
   -2.2400  -12.6129   18.3936 O   0  0  0  0  0  0  0  0  0  0  0  0
   -1.9696  -18.1739   18.9017 C   0  0  0  0  0  0  0  0  0  0  0  0
   -2.2903  -18.1604   17.7771 O   0  0  0  0  0  0  0  0  0  0  0  0
   -2.1895  -19.5070   19.4296 C   0  0  0  0  0  0  0  0  0  0  0  0
   -1.7928  -20.5739   18.5706 C   0  0  0  0  0  0  0  0  0  0  0  0
   -2.3959  -21.8530   18.6356 C   0  0  0  0  0  0  0  0  0  0  0  0
   -3.5217  -22.1224   19.3176 N   0  0  0  0  0  0  0  0  0  0  0  0
   -4.1595  -21.0299   19.7319 C   0  0  0  0  0  0  0  0  0  0  0  0
   -3.5818  -19.7544   19.6365 C   0  0  0  0  0  0  0  0  0  0  0  0
    6.9192  -12.6936   17.7819 C   0  0  0  0  0  0  0  0  0  0  0  0
    7.3667  -11.7837   18.7297 C   0  0  0  0  0  0  0  0  0  0  0  0
    7.9834  -10.7746   18.0370 N   0  0  0  0  0  0  0  0  0  0  0  0
    7.9106  -11.0789   16.7119 C   0  0  0  0  0  0  0  0  0  0  0  0
    7.3075  -12.2309   16.5243 N   0  0  0  0  0  0  0  0  0  0  0  0
    6.7731  -14.3584   20.0201 H   0  0  0  0  0  0  0  0  0  0  0  0
    6.4325  -15.8833   19.1772 H   0  0  0  0  0  0  0  0  0  0  0  0
    7.9225  -14.9996   18.8540 H   0  0  0  0  0  0  0  0  0  0  0  0
    5.7629  -14.3612   15.8298 H   0  0  0  0  0  0  0  0  0  0  0  0
    7.3315  -14.9861   16.3552 H   0  0  0  0  0  0  0  0  0  0  0  0
    5.8569  -15.8713   16.7281 H   0  0  0  0  0  0  0  0  0  0  0  0
    4.3051  -15.8328   18.4172 H   0  0  0  0  0  0  0  0  0  0  0  0
    1.6018  -14.3726   18.0006 H   0  0  0  0  0  0  0  0  0  0  0  0
    2.3398  -15.9883   17.9849 H   0  0  0  0  0  0  0  0  0  0  0  0
    0.5843  -17.3579   19.4324 H   0  0  0  0  0  0  0  0  0  0  0  0
    0.5846  -16.1685   20.7673 H   0  0  0  0  0  0  0  0  0  0  0  0
   -2.1952  -15.7476   18.6544 H   0  0  0  0  0  0  0  0  0  0  0  0
   -2.0566  -14.8735   20.1424 H   0  0  0  0  0  0  0  0  0  0  0  0
   -0.7790  -13.5184   17.6283 H   0  0  0  0  0  0  0  0  0  0  0  0
   -2.2875  -14.2708   17.0832 H   0  0  0  0  0  0  0  0  0  0  0  0
   -2.4006  -12.1030   17.5803 H   0  0  0  0  0  0  0  0  0  0  0  0
   -0.9466  -20.4362   17.8983 H   0  0  0  0  0  0  0  0  0  0  0  0
   -1.9703  -22.6888   18.0873 H   0  0  0  0  0  0  0  0  0  0  0  0
   -5.1883  -21.1627   20.0506 H   0  0  0  0  0  0  0  0  0  0  0  0
   -4.2803  -18.9176   19.6562 H   0  0  0  0  0  0  0  0  0  0  0  0
    7.2782  -11.7752   19.8062 H   0  0  0  0  0  0  0  0  0  0  0  0
    8.4283   -9.9597   18.4314 H   0  0  0  0  0  0  0  0  0  0  0  0
    8.3166  -10.4435   15.9368 H   0  0  0  0  0  0  0  0  0  0  0  0
  1  2  1  0
  2  3  1  0
  2  4  1  0
  4  5  2  0
  4  6  1  0
  6  7  1  0
  7  8  1  0
  8  9  1  0
  9 10  1  0
 10 11  1  0
 11 12  1  0
  9 13  1  0
 13 14  2  0
 13 15  1  0
 15 16  2  0
 16 17  1  0
 17 18  2  0
 18 19  1  0
 19 20  2  0
  2 21  1  0
 21 22  2  0
 22 23  1  0
 23 24  1  0
 24 25  2  0
 20 15  1  0
 25 21  1  0
  1 26  1  0
  1 27  1  0
  1 28  1  0
  3 29  1  0
  3 30  1  0
  3 31  1  0
  6 32  1  0
  7 33  1  0
  7 34  1  0
  8 35  1  0
  8 36  1  0
 10 37  1  0
 10 38  1  0
 11 39  1  0
 11 40  1  0
 12 41  1  0
 16 42  1  0
 17 43  1  0
 19 44  1  0
 20 45  1  0
 22 46  1  0
 23 47  1  0
 24 48  1  0
M  END
>  <Energy>  (467) 
596.02721604837734

>  <compound_id>  (467) 
52672

>  <target_id>  (467) 
1

>  <reference_id>  (467) 
82

>  <inspiration_ids>  (467) 
[82, 114]

>  <energy_score>  (467) 
518.2080762864996

>  <distance_score>  (467) 
14.54912377623552

>  <path>  (467) 
/opt/xchem-fragalysis-2/maxwin/BulkDock/SCRATCH/511025/C52672-P82/C52672-P82.minimised.mol

>  <scratch_subdir>  (467) 
/opt/xchem-fragalysis-2/maxwin/BulkDock/SCRATCH/511025/C52672-P82

>  <fragmenstein_runtime>  (467) 
33.883922815322876

>  <fragmenstein_outcome>  (467) 
too moved

>  <fragmenstein_mode>  (467) 
expansion

>  <fragmenstein_error>  (467) 


$$$$
C52672-P114
     RDKit          3D

 48 49  0  0  0  0  0  0  0  0999 V2000
    6.8637  -13.8323   19.1233 C   0  0  0  0  0  0  0  0  0  0  0  0
    5.8934  -12.5333   19.0433 C   0  0  0  0  0  0  0  0  0  0  0  0
    5.9774  -12.2137   17.4502 C   0  0  0  0  0  0  0  0  0  0  0  0
    4.4924  -13.3680   19.1553 C   0  0  0  0  0  0  0  0  0  0  0  0
    4.3476  -14.0291   18.1717 O   0  0  0  0  0  0  0  0  0  0  0  0
    3.4306  -13.4519   20.5064 N   0  0  0  0  0  0  0  0  0  0  0  0
    1.9363  -14.6282   20.8631 C   0  0  0  0  0  0  0  0  0  0  0  0
    0.0307  -14.4853   22.0057 C   0  0  0  0  0  0  0  0  0  0  0  0
   -1.8922  -14.4269   21.0388 N   0  0  0  0  0  0  0  0  0  0  0  0
   -1.4945  -12.5493   20.8178 C   0  0  0  0  0  0  0  0  0  0  0  0
   -2.7569  -11.6562   20.1665 C   0  0  0  0  0  0  0  0  0  0  0  0
   -2.5146  -11.2405   18.8135 O   0  0  0  0  0  0  0  0  0  0  0  0
   -1.9999  -15.7060   19.8470 C   0  0  0  0  0  0  0  0  0  0  0  0
   -1.6957  -15.4915   18.7452 O   0  0  0  0  0  0  0  0  0  0  0  0
   -2.6423  -17.2459   19.9481 C   0  0  0  0  0  0  0  0  0  0  0  0
   -2.2458  -18.2808   19.1397 C   0  0  0  0  0  0  0  0  0  0  0  0
   -2.9513  -19.5540   18.8674 C   0  0  0  0  0  0  0  0  0  0  0  0
   -4.2230  -19.7772   19.1662 N   0  0  0  0  0  0  0  0  0  0  0  0
   -4.8043  -18.6217   19.3546 C   0  0  0  0  0  0  0  0  0  0  0  0
   -3.9793  -17.4500   19.4716 C   0  0  0  0  0  0  0  0  0  0  0  0
    6.8491  -11.4965   19.6632 C   0  0  0  0  0  0  0  0  0  0  0  0
    7.5878  -10.5257   18.9476 C   0  0  0  0  0  0  0  0  0  0  0  0
    8.7454  -10.3016   19.6392 N   0  0  0  0  0  0  0  0  0  0  0  0
    8.6813  -11.0665   20.7618 C   0  0  0  0  0  0  0  0  0  0  0  0
    7.5410  -11.7215   20.8399 N   0  0  0  0  0  0  0  0  0  0  0  0
    6.8906  -14.2218   20.1417 H   0  0  0  0  0  0  0  0  0  0  0  0
    6.5494  -14.6564   18.4720 H   0  0  0  0  0  0  0  0  0  0  0  0
    7.8950  -13.5969   18.8282 H   0  0  0  0  0  0  0  0  0  0  0  0
    5.6158  -13.0119   16.7979 H   0  0  0  0  0  0  0  0  0  0  0  0
    7.0122  -12.0840   17.1090 H   0  0  0  0  0  0  0  0  0  0  0  0
    5.4153  -11.3088   17.1994 H   0  0  0  0  0  0  0  0  0  0  0  0
    3.7981  -12.8704   21.2425 H   0  0  0  0  0  0  0  0  0  0  0  0
    2.8129  -14.6596   21.6292 H   0  0  0  0  0  0  0  0  0  0  0  0
    2.0199  -15.2771   20.0640 H   0  0  0  0  0  0  0  0  0  0  0  0
   -0.1126  -14.0599   23.0019 H   0  0  0  0  0  0  0  0  0  0  0  0
   -0.0526  -15.6084   21.9584 H   0  0  0  0  0  0  0  0  0  0  0  0
   -0.9747  -12.1943   19.9407 H   0  0  0  0  0  0  0  0  0  0  0  0
   -1.3404  -11.8196   21.6018 H   0  0  0  0  0  0  0  0  0  0  0  0
   -3.7458  -12.0863   20.1979 H   0  0  0  0  0  0  0  0  0  0  0  0
   -2.8163  -10.7198   20.7363 H   0  0  0  0  0  0  0  0  0  0  0  0
   -1.6979  -10.6987   18.8259 H   0  0  0  0  0  0  0  0  0  0  0  0
   -1.3738  -18.1579   18.5099 H   0  0  0  0  0  0  0  0  0  0  0  0
   -2.4713  -20.3345   18.2790 H   0  0  0  0  0  0  0  0  0  0  0  0
   -5.8693  -18.5659   19.1621 H   0  0  0  0  0  0  0  0  0  0  0  0
   -4.2855  -16.7999   18.6321 H   0  0  0  0  0  0  0  0  0  0  0  0
    7.4562  -10.1026   17.9606 H   0  0  0  0  0  0  0  0  0  0  0  0
    9.5309   -9.7338   19.3498 H   0  0  0  0  0  0  0  0  0  0  0  0
    9.4764  -11.0987   21.4958 H   0  0  0  0  0  0  0  0  0  0  0  0
  1  2  1  0
  2  3  1  0
  2  4  1  0
  4  5  2  0
  4  6  1  0
  6  7  1  0
  7  8  1  0
  8  9  1  0
  9 10  1  0
 10 11  1  0
 11 12  1  0
  9 13  1  0
 13 14  2  0
 13 15  1  0
 15 16  2  0
 16 17  1  0
 17 18  2  0
 18 19  1  0
 19 20  2  0
  2 21  1  0
 21 22  2  0
 22 23  1  0
 23 24  1  0
 24 25  2  0
 20 15  1  0
 25 21  1  0
  1 26  1  0
  1 27  1  0
  1 28  1  0
  3 29  1  0
  3 30  1  0
  3 31  1  0
  6 32  1  0
  7 33  1  0
  7 34  1  0
  8 35  1  0
  8 36  1  0
 10 37  1  0
 10 38  1  0
 11 39  1  0
 11 40  1  0
 12 41  1  0
 16 42  1  0
 17 43  1  0
 19 44  1  0
 20 45  1  0
 22 46  1  0
 23 47  1  0
 24 48  1  0
M  END
>  <Energy>  (468) 
831.15824528212931

>  <compound_id>  (468) 
52672

>  <target_id>  (468) 
1

>  <reference_id>  (468) 
114

>  <inspiration_ids>  (468) 
[82, 114]

>  <energy_score>  (468) 
753.3391055202636

>  <distance_score>  (468) 
14.687833608392227

>  <path>  (468) 
/opt/xchem-fragalysis-2/maxwin/BulkDock/SCRATCH/511025/C52672-P114/C52672-P114.minimised.mol

>  <scratch_subdir>  (468) 
/opt/xchem-fragalysis-2/maxwin/BulkDock/SCRATCH/511025/C52672-P114

>  <fragmenstein_runtime>  (468) 
45.55466604232788

>  <fragmenstein_outcome>  (468) 
too moved

>  <fragmenstein_mode>  (468) 
expansion

>  <fragmenstein_error>  (468) 


$$$$
C23253-P82
     RDKit          3D

 36 37  0  0  0  0  0  0  0  0999 V2000
   -8.0762  -22.8467   27.7438 N   0  0  0  0  0  0  0  0  0  0  0  0
   -7.0284  -22.5439   27.4221 C   0  0  0  0  0  0  0  0  0  0  0  0
   -5.8906  -21.8989   27.0942 C   0  0  0  0  0  0  0  0  0  0  0  0
   -6.0848  -20.7558   26.4272 C   0  0  0  0  0  0  0  0  0  0  0  0
   -4.9263  -20.3077   25.9988 C   0  0  0  0  0  0  0  0  0  0  0  0
   -4.0111  -19.9910   27.0526 C   0  0  0  0  0  0  0  0  0  0  0  0
   -2.5431  -19.1946   26.4754 O   0  0  0  0  0  0  0  0  0  0  0  0
   -2.2884  -17.4408   26.0468 C   0  0  0  0  0  0  0  0  0  0  0  0
   -1.9972  -15.8330   24.7359 C   0  0  0  0  0  0  0  0  0  0  0  0
   -0.7988  -14.3016   24.5636 N   0  0  0  0  0  0  0  0  0  0  0  0
    0.8424  -14.1309   23.8255 C   0  0  0  0  0  0  0  0  0  0  0  0
    1.4626  -14.9668   23.2134 O   0  0  0  0  0  0  0  0  0  0  0  0
    1.8947  -12.4366   23.8253 C   0  0  0  0  0  0  0  0  0  0  0  0
    3.3426  -12.3756   22.6383 C   0  0  0  0  0  0  0  0  0  0  0  0
    4.3455  -12.5979   20.9978 C   0  0  0  0  0  0  0  0  0  0  0  0
    4.1797  -13.0785   19.7685 N   0  0  0  0  0  0  0  0  0  0  0  0
    5.3021  -13.0286   18.9499 C   0  0  0  0  0  0  0  0  0  0  0  0
    6.2584  -12.3014   19.5668 C   0  0  0  0  0  0  0  0  0  0  0  0
    5.6202  -11.9055   20.7081 N   0  0  0  0  0  0  0  0  0  0  0  0
   -4.0683  -20.8961   28.0859 N   0  0  0  0  0  0  0  0  0  0  0  0
   -4.8539  -21.9638   27.9425 C   0  0  0  0  0  0  0  0  0  0  0  0
   -6.6729  -20.0290   27.0202 H   0  0  0  0  0  0  0  0  0  0  0  0
   -4.7712  -20.1155   24.9437 H   0  0  0  0  0  0  0  0  0  0  0  0
   -1.2570  -17.8364   26.1123 H   0  0  0  0  0  0  0  0  0  0  0  0
   -2.5155  -17.0051   27.0278 H   0  0  0  0  0  0  0  0  0  0  0  0
   -2.4069  -15.1948   25.5256 H   0  0  0  0  0  0  0  0  0  0  0  0
   -2.8528  -15.6308   24.0877 H   0  0  0  0  0  0  0  0  0  0  0  0
   -1.0267  -13.4704   25.0808 H   0  0  0  0  0  0  0  0  0  0  0  0
    1.9841  -12.1676   24.8273 H   0  0  0  0  0  0  0  0  0  0  0  0
    1.2853  -11.7283   23.2592 H   0  0  0  0  0  0  0  0  0  0  0  0
    3.6532  -13.0448   23.4051 H   0  0  0  0  0  0  0  0  0  0  0  0
    3.6236  -11.3437   22.6385 H   0  0  0  0  0  0  0  0  0  0  0  0
    5.2955  -13.4944   17.9758 H   0  0  0  0  0  0  0  0  0  0  0  0
    7.2355  -11.9662   19.2602 H   0  0  0  0  0  0  0  0  0  0  0  0
    5.9318  -11.1665   21.3053 H   0  0  0  0  0  0  0  0  0  0  0  0
   -4.5065  -22.8498   28.4526 H   0  0  0  0  0  0  0  0  0  0  0  0
  1  2  3  0
  2  3  1  0
  3  4  2  0
  4  5  1  0
  5  6  2  0
  6  7  1  0
  7  8  1  0
  8  9  1  0
  9 10  1  0
 10 11  1  0
 11 12  2  0
 11 13  1  0
 13 14  1  0
 14 15  1  0
 15 16  2  0
 16 17  1  0
 17 18  2  0
 18 19  1  0
  6 20  1  0
 20 21  2  0
 21  3  1  0
 19 15  1  0
  4 22  1  0
  5 23  1  0
  8 24  1  0
  8 25  1  0
  9 26  1  0
  9 27  1  0
 10 28  1  0
 13 29  1  0
 13 30  1  0
 14 31  1  0
 14 32  1  0
 17 33  1  0
 18 34  1  0
 19 35  1  0
 21 36  1  0
M  END
>  <Energy>  (469) 
703.55771764519125

>  <compound_id>  (469) 
23253

>  <target_id>  (469) 
1

>  <reference_id>  (469) 
82

>  <inspiration_ids>  (469) 
[82, 114]

>  <energy_score>  (469) 
685.089620112235

>  <distance_score>  (469) 
10.939579175278466

>  <path>  (469) 
/opt/xchem-fragalysis-2/maxwin/BulkDock/SCRATCH/511025/C23253-P82/C23253-P82.minimised.mol

>  <scratch_subdir>  (469) 
/opt/xchem-fragalysis-2/maxwin/BulkDock/SCRATCH/511025/C23253-P82

>  <fragmenstein_runtime>  (469) 
22.90918469429016

>  <fragmenstein_outcome>  (469) 
too moved

>  <fragmenstein_mode>  (469) 
expansion

>  <fragmenstein_error>  (469) 


$$$$
C23253-P114
     RDKit          3D

 36 37  0  0  0  0  0  0  0  0999 V2000
   -8.4230  -22.9875   27.9313 N   0  0  0  0  0  0  0  0  0  0  0  0
   -7.5166  -22.3418   27.5793 C   0  0  0  0  0  0  0  0  0  0  0  0
   -6.5027  -21.4481   27.1823 C   0  0  0  0  0  0  0  0  0  0  0  0
   -5.7528  -21.7221   26.0966 C   0  0  0  0  0  0  0  0  0  0  0  0
   -4.8039  -20.7745   25.8138 C   0  0  0  0  0  0  0  0  0  0  0  0
   -4.2284  -19.9720   26.8912 C   0  0  0  0  0  0  0  0  0  0  0  0
   -2.6421  -19.1308   26.5067 O   0  0  0  0  0  0  0  0  0  0  0  0
   -2.3458  -17.2965   26.1961 C   0  0  0  0  0  0  0  0  0  0  0  0
   -2.1309  -15.5051   25.0681 C   0  0  0  0  0  0  0  0  0  0  0  0
   -0.5871  -14.4596   24.3611 N   0  0  0  0  0  0  0  0  0  0  0  0
    0.9155  -13.7319   25.2201 C   0  0  0  0  0  0  0  0  0  0  0  0
    1.1987  -13.6887   26.4161 O   0  0  0  0  0  0  0  0  0  0  0  0
    2.3938  -12.9873   24.0905 C   0  0  0  0  0  0  0  0  0  0  0  0
    3.1367  -11.6239   22.9091 C   0  0  0  0  0  0  0  0  0  0  0  0
    4.1895   -9.8822   23.2402 C   0  0  0  0  0  0  0  0  0  0  0  0
    3.0785   -8.5202   23.0372 N   0  0  0  0  0  0  0  0  0  0  0  0
    3.8311   -7.2636   24.0800 C   0  0  0  0  0  0  0  0  0  0  0  0
    5.1465   -7.4136   23.9315 C   0  0  0  0  0  0  0  0  0  0  0  0
    4.4985   -8.1427   22.9627 N   0  0  0  0  0  0  0  0  0  0  0  0
   -5.2453  -19.4499   27.5902 N   0  0  0  0  0  0  0  0  0  0  0  0
   -6.3665  -20.1685   27.6843 C   0  0  0  0  0  0  0  0  0  0  0  0
   -5.9471  -22.5576   25.4325 H   0  0  0  0  0  0  0  0  0  0  0  0
   -4.3718  -20.8652   24.8278 H   0  0  0  0  0  0  0  0  0  0  0  0
   -2.5554  -16.9570   27.2178 H   0  0  0  0  0  0  0  0  0  0  0  0
   -1.3190  -17.7109   26.2232 H   0  0  0  0  0  0  0  0  0  0  0  0
   -2.3118  -14.7352   25.8267 H   0  0  0  0  0  0  0  0  0  0  0  0
   -2.8670  -15.5027   24.2772 H   0  0  0  0  0  0  0  0  0  0  0  0
   -0.5524  -14.2558   23.3745 H   0  0  0  0  0  0  0  0  0  0  0  0
    2.6136  -13.8693   23.4590 H   0  0  0  0  0  0  0  0  0  0  0  0
    3.2904  -13.3405   24.6044 H   0  0  0  0  0  0  0  0  0  0  0  0
    3.3814  -12.1817   21.9921 H   0  0  0  0  0  0  0  0  0  0  0  0
    4.0630  -12.1255   22.9440 H   0  0  0  0  0  0  0  0  0  0  0  0
    3.2251   -6.5466   24.5348 H   0  0  0  0  0  0  0  0  0  0  0  0
    6.0578   -6.8251   23.9399 H   0  0  0  0  0  0  0  0  0  0  0  0
    5.0263   -8.0364   22.1566 H   0  0  0  0  0  0  0  0  0  0  0  0
   -7.1557  -19.6168   28.1752 H   0  0  0  0  0  0  0  0  0  0  0  0
  1  2  3  0
  2  3  1  0
  3  4  2  0
  4  5  1  0
  5  6  2  0
  6  7  1  0
  7  8  1  0
  8  9  1  0
  9 10  1  0
 10 11  1  0
 11 12  2  0
 11 13  1  0
 13 14  1  0
 14 15  1  0
 15 16  2  0
 16 17  1  0
 17 18  2  0
 18 19  1  0
  6 20  1  0
 20 21  2  0
 21  3  1  0
 19 15  1  0
  4 22  1  0
  5 23  1  0
  8 24  1  0
  8 25  1  0
  9 26  1  0
  9 27  1  0
 10 28  1  0
 13 29  1  0
 13 30  1  0
 14 31  1  0
 14 32  1  0
 17 33  1  0
 18 34  1  0
 19 35  1  0
 21 36  1  0
M  END
>  <Energy>  (470) 
1048.7019492488309

>  <compound_id>  (470) 
23253

>  <target_id>  (470) 
1

>  <reference_id>  (470) 
114

>  <inspiration_ids>  (470) 
[82, 114]

>  <energy_score>  (470) 
1030.23385171588

>  <distance_score>  (470) 
10.662605271225827

>  <path>  (470) 
/opt/xchem-fragalysis-2/maxwin/BulkDock/SCRATCH/511025/C23253-P114/C23253-P114.minimised.mol

>  <scratch_subdir>  (470) 
/opt/xchem-fragalysis-2/maxwin/BulkDock/SCRATCH/511025/C23253-P114

>  <fragmenstein_runtime>  (470) 
19.54870080947876

>  <fragmenstein_outcome>  (470) 
too moved

>  <fragmenstein_mode>  (470) 
expansion

>  <fragmenstein_error>  (470) 


$$$$
C23254-P82
     RDKit          3D

 41 43  0  0  0  0  0  0  0  0999 V2000
   -2.0049  -15.3884   27.7400 O   0  0  0  0  0  0  0  0  0  0  0  0
   -2.5617  -15.5473   26.6984 C   0  0  0  0  0  0  0  0  0  0  0  0
   -4.2075  -16.4959   26.6265 N   0  0  0  0  0  0  0  0  0  0  0  0
   -5.2507  -17.4937   28.0573 C   0  0  0  0  0  0  0  0  0  0  0  0
   -6.5884  -18.8296   28.9148 C   0  0  0  0  0  0  0  0  0  0  0  0
   -8.3969  -19.3560   28.6887 C   0  0  0  0  0  0  0  0  0  0  0  0
   -9.7343  -20.5354   29.9145 C   0  0  0  0  0  0  0  0  0  0  0  0
   -8.7896  -21.1634   31.5986 N   0  0  0  0  0  0  0  0  0  0  0  0
   -6.7969  -20.9537   31.6927 C   0  0  0  0  0  0  0  0  0  0  0  0
   -6.1481  -20.3249   33.1312 C   0  0  0  0  0  0  0  0  0  0  0  0
   -4.7398  -19.7089   33.2614 C   0  0  0  0  0  0  0  0  0  0  0  0
   -5.8793  -18.7787   33.2387 C   0  0  0  0  0  0  0  0  0  0  0  0
   -6.0068  -19.6930   30.4334 C   0  0  0  0  0  0  0  0  0  0  0  0
   -1.7308  -14.9981   25.0333 N   0  0  0  0  0  0  0  0  0  0  0  0
    0.1911  -14.2440   24.6145 C   0  0  0  0  0  0  0  0  0  0  0  0
    1.1162  -13.2273   25.9540 C   0  0  0  0  0  0  0  0  0  0  0  0
    1.8982  -13.8479   26.9085 O   0  0  0  0  0  0  0  0  0  0  0  0
    1.8637  -13.1577   24.0524 C   0  0  0  0  0  0  0  0  0  0  0  0
    1.9917  -12.1830   23.0941 N   0  0  0  0  0  0  0  0  0  0  0  0
    3.2048  -12.7582   22.1289 C   0  0  0  0  0  0  0  0  0  0  0  0
    3.7648  -11.9282   22.7970 C   0  0  0  0  0  0  0  0  0  0  0  0
    3.2876  -13.1195   23.9542 N   0  0  0  0  0  0  0  0  0  0  0  0
   -4.4833  -16.6018   25.6600 H   0  0  0  0  0  0  0  0  0  0  0  0
   -4.7177  -18.3982   27.7269 H   0  0  0  0  0  0  0  0  0  0  0  0
   -6.1342  -17.2255   27.4566 H   0  0  0  0  0  0  0  0  0  0  0  0
   -8.7307  -19.0966   27.6620 H   0  0  0  0  0  0  0  0  0  0  0  0
  -10.6770  -21.0699   29.7308 H   0  0  0  0  0  0  0  0  0  0  0  0
   -6.9430  -20.5069   33.8333 H   0  0  0  0  0  0  0  0  0  0  0  0
   -4.1890  -19.6503   34.1950 H   0  0  0  0  0  0  0  0  0  0  0  0
   -4.0563  -19.7853   32.4283 H   0  0  0  0  0  0  0  0  0  0  0  0
   -5.9931  -18.1132   32.3949 H   0  0  0  0  0  0  0  0  0  0  0  0
   -6.1766  -18.3016   34.1683 H   0  0  0  0  0  0  0  0  0  0  0  0
   -4.9760  -19.4192   30.6769 H   0  0  0  0  0  0  0  0  0  0  0  0
   -2.3058  -15.2859   24.2714 H   0  0  0  0  0  0  0  0  0  0  0  0
   -0.1236  -14.0746   23.5641 H   0  0  0  0  0  0  0  0  0  0  0  0
    1.6440  -12.3766   25.6041 H   0  0  0  0  0  0  0  0  0  0  0  0
    0.7216  -12.2243   26.2790 H   0  0  0  0  0  0  0  0  0  0  0  0
    2.5405  -13.1972   27.2248 H   0  0  0  0  0  0  0  0  0  0  0  0
    3.3081  -13.1533   21.1285 H   0  0  0  0  0  0  0  0  0  0  0  0
    4.6192  -11.2444   22.6484 H   0  0  0  0  0  0  0  0  0  0  0  0
    3.7827  -13.2254   24.8206 H   0  0  0  0  0  0  0  0  0  0  0  0
  1  2  2  0
  2  3  1  0
  3  4  1  0
  4  5  1  0
  5  6  2  0
  6  7  1  0
  7  8  2  0
  8  9  1  0
  9 10  1  0
 10 11  1  0
 11 12  1  0
  9 13  2  0
  2 14  1  0
 14 15  1  0
 15 16  1  0
 16 17  1  0
 15 18  1  0
 18 19  2  0
 19 20  1  0
 20 21  2  0
 21 22  1  0
 13  5  1  0
 22 18  1  0
 12 10  1  0
  3 23  1  0
  4 24  1  0
  4 25  1  0
  6 26  1  0
  7 27  1  0
 10 28  1  0
 11 29  1  0
 11 30  1  0
 12 31  1  0
 12 32  1  0
 13 33  1  0
 14 34  1  0
 15 35  1  0
 16 36  1  0
 16 37  1  0
 17 38  1  0
 20 39  1  0
 21 40  1  0
 22 41  1  0
M  END
>  <Energy>  (471) 
1834.2830554318402

>  <compound_id>  (471) 
23254

>  <target_id>  (471) 
1

>  <reference_id>  (471) 
82

>  <inspiration_ids>  (471) 
[82, 114]

>  <energy_score>  (471) 
1846.8111601964774

>  <distance_score>  (471) 
11.83221066442619

>  <path>  (471) 
/opt/xchem-fragalysis-2/maxwin/BulkDock/SCRATCH/511025/C23254-P82/C23254-P82.minimised.mol

>  <scratch_subdir>  (471) 
/opt/xchem-fragalysis-2/maxwin/BulkDock/SCRATCH/511025/C23254-P82

>  <fragmenstein_runtime>  (471) 
25.229878187179565

>  <fragmenstein_outcome>  (471) 
too moved

>  <fragmenstein_mode>  (471) 
expansion

>  <fragmenstein_error>  (471) 


$$$$
C23254-P114
     RDKit          3D

 41 43  0  0  0  0  0  0  0  0999 V2000
    1.0075  -13.6401   25.9028 O   0  0  0  0  0  0  0  0  0  0  0  0
    0.6657  -14.0406   24.8231 C   0  0  0  0  0  0  0  0  0  0  0  0
   -0.9334  -14.5996   24.3953 N   0  0  0  0  0  0  0  0  0  0  0  0
   -2.4310  -14.7473   25.3900 C   0  0  0  0  0  0  0  0  0  0  0  0
   -3.4912  -15.9154   25.3474 C   0  0  0  0  0  0  0  0  0  0  0  0
   -4.8231  -15.5850   25.6690 C   0  0  0  0  0  0  0  0  0  0  0  0
   -5.7641  -16.5810   25.9447 C   0  0  0  0  0  0  0  0  0  0  0  0
   -5.4978  -17.8996   25.9357 N   0  0  0  0  0  0  0  0  0  0  0  0
   -4.2310  -18.2652   25.6320 C   0  0  0  0  0  0  0  0  0  0  0  0
   -3.8951  -19.7391   25.6068 C   0  0  0  0  0  0  0  0  0  0  0  0
   -4.4138  -20.6530   26.6947 C   0  0  0  0  0  0  0  0  0  0  0  0
   -2.9534  -20.3196   26.6375 C   0  0  0  0  0  0  0  0  0  0  0  0
   -3.2339  -17.3009   25.3340 C   0  0  0  0  0  0  0  0  0  0  0  0
    1.5064  -14.2782   23.5938 N   0  0  0  0  0  0  0  0  0  0  0  0
    3.0077  -14.1906   23.3897 C   0  0  0  0  0  0  0  0  0  0  0  0
    3.1681  -12.7431   23.2913 C   0  0  0  0  0  0  0  0  0  0  0  0
    2.0451  -12.0093   23.5598 O   0  0  0  0  0  0  0  0  0  0  0  0
    4.1960  -14.8587   24.6034 C   0  0  0  0  0  0  0  0  0  0  0  0
    4.6505  -14.2985   25.7261 N   0  0  0  0  0  0  0  0  0  0  0  0
    5.3687  -15.2144   26.4385 C   0  0  0  0  0  0  0  0  0  0  0  0
    5.4740  -16.3673   25.7160 C   0  0  0  0  0  0  0  0  0  0  0  0
    4.8229  -16.1072   24.5339 N   0  0  0  0  0  0  0  0  0  0  0  0
   -0.9629  -14.7975   23.4147 H   0  0  0  0  0  0  0  0  0  0  0  0
   -2.9828  -13.7926   25.3470 H   0  0  0  0  0  0  0  0  0  0  0  0
   -2.1297  -14.6890   26.4403 H   0  0  0  0  0  0  0  0  0  0  0  0
   -5.1312  -14.5455   25.7627 H   0  0  0  0  0  0  0  0  0  0  0  0
   -6.7856  -16.3177   26.2046 H   0  0  0  0  0  0  0  0  0  0  0  0
   -3.8533  -20.1762   24.6118 H   0  0  0  0  0  0  0  0  0  0  0  0
   -4.7266  -21.6498   26.4060 H   0  0  0  0  0  0  0  0  0  0  0  0
   -5.0059  -20.2190   27.4931 H   0  0  0  0  0  0  0  0  0  0  0  0
   -2.5585  -19.6714   27.4119 H   0  0  0  0  0  0  0  0  0  0  0  0
   -2.2684  -21.0957   26.3168 H   0  0  0  0  0  0  0  0  0  0  0  0
   -2.2396  -17.6913   25.1413 H   0  0  0  0  0  0  0  0  0  0  0  0
    0.9018  -14.5304   22.8231 H   0  0  0  0  0  0  0  0  0  0  0  0
    3.2489  -14.7147   22.5191 H   0  0  0  0  0  0  0  0  0  0  0  0
    3.6262  -12.3460   22.3925 H   0  0  0  0  0  0  0  0  0  0  0  0
    3.7183  -12.6978   24.1594 H   0  0  0  0  0  0  0  0  0  0  0  0
    1.7501  -12.2300   24.4733 H   0  0  0  0  0  0  0  0  0  0  0  0
    5.7598  -14.9935   27.4223 H   0  0  0  0  0  0  0  0  0  0  0  0
    5.9351  -17.3221   25.9205 H   0  0  0  0  0  0  0  0  0  0  0  0
    4.5328  -16.8253   23.9014 H   0  0  0  0  0  0  0  0  0  0  0  0
  1  2  2  0
  2  3  1  0
  3  4  1  0
  4  5  1  0
  5  6  2  0
  6  7  1  0
  7  8  2  0
  8  9  1  0
  9 10  1  0
 10 11  1  0
 11 12  1  0
  9 13  2  0
  2 14  1  0
 14 15  1  0
 15 16  1  0
 16 17  1  0
 15 18  1  0
 18 19  2  0
 19 20  1  0
 20 21  2  0
 21 22  1  0
 13  5  1  0
 22 18  1  0
 12 10  1  0
  3 23  1  0
  4 24  1  0
  4 25  1  0
  6 26  1  0
  7 27  1  0
 10 28  1  0
 11 29  1  0
 11 30  1  0
 12 31  1  0
 12 32  1  0
 13 33  1  0
 14 34  1  0
 15 35  1  0
 16 36  1  0
 16 37  1  0
 17 38  1  0
 20 39  1  0
 21 40  1  0
 22 41  1  0
M  END
>  <Energy>  (472) 
115.79614217830675

>  <compound_id>  (472) 
23254

>  <target_id>  (472) 
1

>  <reference_id>  (472) 
114

>  <inspiration_ids>  (472) 
[82, 114]

>  <energy_score>  (472) 
128.3242469429244

>  <distance_score>  (472) 
15.594004588380656

>  <path>  (472) 
/opt/xchem-fragalysis-2/maxwin/BulkDock/SCRATCH/511025/C23254-P114/C23254-P114.minimised.mol

>  <scratch_subdir>  (472) 
/opt/xchem-fragalysis-2/maxwin/BulkDock/SCRATCH/511025/C23254-P114

>  <fragmenstein_runtime>  (472) 
37.174880504608154

>  <fragmenstein_outcome>  (472) 
too moved

>  <fragmenstein_mode>  (472) 
expansion

>  <fragmenstein_error>  (472) 


$$$$
C23255-P82
     RDKit          3D

 32 34  0  0  0  0  0  0  0  0999 V2000
   -0.6574  -18.0908   25.7130 O   0  0  0  0  0  0  0  0  0  0  0  0
   -1.7858  -17.8212   25.4735 C   0  0  0  0  0  0  0  0  0  0  0  0
   -2.1855  -16.2056   24.8451 N   0  0  0  0  0  0  0  0  0  0  0  0
   -1.1373  -14.8421   24.3613 C   0  0  0  0  0  0  0  0  0  0  0  0
    0.6825  -14.2090   24.1626 C   0  0  0  0  0  0  0  0  0  0  0  0
    1.3615  -13.4033   25.2845 N   0  0  0  0  0  0  0  0  0  0  0  0
    2.1373  -12.6774   24.4138 C   0  0  0  0  0  0  0  0  0  0  0  0
    2.9861  -13.2590   23.5798 C   0  0  0  0  0  0  0  0  0  0  0  0
    2.2913  -14.4298   23.3410 N   0  0  0  0  0  0  0  0  0  0  0  0
   -2.6924  -19.1064   25.7432 C   0  0  0  0  0  0  0  0  0  0  0  0
   -4.5277  -20.0387   25.3072 C   0  0  0  0  0  0  0  0  0  0  0  0
   -5.8318  -19.5601   24.7230 C   0  0  0  0  0  0  0  0  0  0  0  0
   -7.0881  -19.5329   25.3609 C   0  0  0  0  0  0  0  0  0  0  0  0
   -7.2187  -20.2252   26.5078 C   0  0  0  0  0  0  0  0  0  0  0  0
   -6.2579  -21.1625   26.6368 C   0  0  0  0  0  0  0  0  0  0  0  0
   -5.0517  -21.0969   25.9660 N   0  0  0  0  0  0  0  0  0  0  0  0
   -2.7161  -17.9294   27.1999 C   0  0  0  0  0  0  0  0  0  0  0  0
   -1.9177  -19.1990   27.0220 C   0  0  0  0  0  0  0  0  0  0  0  0
   -3.1842  -16.1294   24.7817 H   0  0  0  0  0  0  0  0  0  0  0  0
   -1.5012  -14.1264   25.1256 H   0  0  0  0  0  0  0  0  0  0  0  0
   -1.3218  -14.9084   23.2940 H   0  0  0  0  0  0  0  0  0  0  0  0
    1.9440  -11.6806   24.2795 H   0  0  0  0  0  0  0  0  0  0  0  0
    3.4201  -12.7022   22.7647 H   0  0  0  0  0  0  0  0  0  0  0  0
    2.7580  -15.3229   23.2550 H   0  0  0  0  0  0  0  0  0  0  0  0
   -5.9260  -18.9305   23.8328 H   0  0  0  0  0  0  0  0  0  0  0  0
   -7.9060  -18.9476   24.9542 H   0  0  0  0  0  0  0  0  0  0  0  0
   -8.1231  -20.1848   27.0805 H   0  0  0  0  0  0  0  0  0  0  0  0
   -6.3534  -22.0048   27.3108 H   0  0  0  0  0  0  0  0  0  0  0  0
   -3.6946  -17.6152   27.6041 H   0  0  0  0  0  0  0  0  0  0  0  0
   -2.1629  -16.9966   27.3130 H   0  0  0  0  0  0  0  0  0  0  0  0
   -0.9805  -18.7600   27.3168 H   0  0  0  0  0  0  0  0  0  0  0  0
   -1.6163  -20.1325   27.4089 H   0  0  0  0  0  0  0  0  0  0  0  0
  1  2  2  0
  2  3  1  0
  3  4  1  0
  4  5  1  0
  5  6  2  0
  6  7  1  0
  7  8  2  0
  8  9  1  0
  2 10  1  0
 10 11  1  0
 11 12  2  0
 12 13  1  0
 13 14  2  0
 14 15  1  0
 15 16  2  0
 10 17  1  0
 17 18  1  0
  9  5  1  0
 18 10  1  0
 16 11  1  0
  3 19  1  0
  4 20  1  0
  4 21  1  0
  7 22  1  0
  8 23  1  0
  9 24  1  0
 12 25  1  0
 13 26  1  0
 14 27  1  0
 15 28  1  0
 17 29  1  0
 17 30  1  0
 18 31  1  0
 18 32  1  0
M  END
>  <Energy>  (473) 
688.27450578384719

>  <compound_id>  (473) 
23255

>  <target_id>  (473) 
1

>  <reference_id>  (473) 
82

>  <inspiration_ids>  (473) 
[82, 114]

>  <energy_score>  (473) 
637.1103674568653

>  <distance_score>  (473) 
13.745959997894591

>  <path>  (473) 
/opt/xchem-fragalysis-2/maxwin/BulkDock/SCRATCH/511025/C23255-P82/C23255-P82.minimised.mol

>  <scratch_subdir>  (473) 
/opt/xchem-fragalysis-2/maxwin/BulkDock/SCRATCH/511025/C23255-P82

>  <fragmenstein_runtime>  (473) 
22.507078647613525

>  <fragmenstein_outcome>  (473) 
too moved

>  <fragmenstein_mode>  (473) 
expansion

>  <fragmenstein_error>  (473) 


$$$$
C23255-P114
     RDKit          3D

 32 34  0  0  0  0  0  0  0  0999 V2000
    3.3405  -13.6879   24.7990 O   0  0  0  0  0  0  0  0  0  0  0  0
    2.5045  -13.1968   24.0788 C   0  0  0  0  0  0  0  0  0  0  0  0
    2.7191  -12.1342   22.9368 N   0  0  0  0  0  0  0  0  0  0  0  0
    4.2618  -11.4038   22.2173 C   0  0  0  0  0  0  0  0  0  0  0  0
    5.8125  -11.6867   21.0882 C   0  0  0  0  0  0  0  0  0  0  0  0
    6.0089  -11.8309   19.7898 N   0  0  0  0  0  0  0  0  0  0  0  0
    7.3297  -11.4868   19.5018 C   0  0  0  0  0  0  0  0  0  0  0  0
    8.0380  -11.2520   20.6454 C   0  0  0  0  0  0  0  0  0  0  0  0
    7.1105  -11.3678   21.6425 N   0  0  0  0  0  0  0  0  0  0  0  0
    0.6727  -14.0931   24.3628 C   0  0  0  0  0  0  0  0  0  0  0  0
   -1.2559  -14.5565   24.7942 C   0  0  0  0  0  0  0  0  0  0  0  0
   -2.0018  -14.3103   25.9154 C   0  0  0  0  0  0  0  0  0  0  0  0
   -2.0721  -15.1933   27.3752 C   0  0  0  0  0  0  0  0  0  0  0  0
   -2.4160  -16.5935   27.1836 C   0  0  0  0  0  0  0  0  0  0  0  0
   -2.6080  -16.7420   25.7735 C   0  0  0  0  0  0  0  0  0  0  0  0
   -2.1048  -15.6581   24.6155 N   0  0  0  0  0  0  0  0  0  0  0  0
    1.4772  -14.6987   23.3390 C   0  0  0  0  0  0  0  0  0  0  0  0
   -0.0244  -14.1404   22.9118 C   0  0  0  0  0  0  0  0  0  0  0  0
    1.8260  -11.8619   22.5783 H   0  0  0  0  0  0  0  0  0  0  0  0
    4.1280  -12.3340   21.6283 H   0  0  0  0  0  0  0  0  0  0  0  0
    4.9660  -10.9168   22.8995 H   0  0  0  0  0  0  0  0  0  0  0  0
    7.6695  -11.3878   18.4801 H   0  0  0  0  0  0  0  0  0  0  0  0
    9.0631  -10.9661   20.8305 H   0  0  0  0  0  0  0  0  0  0  0  0
    7.2730  -11.1775   22.6207 H   0  0  0  0  0  0  0  0  0  0  0  0
   -2.5292  -13.3352   25.8475 H   0  0  0  0  0  0  0  0  0  0  0  0
   -2.4526  -14.6991   28.2732 H   0  0  0  0  0  0  0  0  0  0  0  0
   -3.0469  -17.1720   27.8100 H   0  0  0  0  0  0  0  0  0  0  0  0
   -2.3571  -17.7660   25.4935 H   0  0  0  0  0  0  0  0  0  0  0  0
    2.6181  -14.5298   22.9551 H   0  0  0  0  0  0  0  0  0  0  0  0
    2.1645  -15.4840   23.5844 H   0  0  0  0  0  0  0  0  0  0  0  0
   -0.7209  -14.8285   22.4645 H   0  0  0  0  0  0  0  0  0  0  0  0
   -0.2088  -13.1157   22.6936 H   0  0  0  0  0  0  0  0  0  0  0  0
  1  2  2  0
  2  3  1  0
  3  4  1  0
  4  5  1  0
  5  6  2  0
  6  7  1  0
  7  8  2  0
  8  9  1  0
  2 10  1  0
 10 11  1  0
 11 12  2  0
 12 13  1  0
 13 14  2  0
 14 15  1  0
 15 16  2  0
 10 17  1  0
 17 18  1  0
  9  5  1  0
 18 10  1  0
 16 11  1  0
  3 19  1  0
  4 20  1  0
  4 21  1  0
  7 22  1  0
  8 23  1  0
  9 24  1  0
 12 25  1  0
 13 26  1  0
 14 27  1  0
 15 28  1  0
 17 29  1  0
 17 30  1  0
 18 31  1  0
 18 32  1  0
M  END
>  <Energy>  (474) 
752.75546447585691

>  <compound_id>  (474) 
23255

>  <target_id>  (474) 
1

>  <reference_id>  (474) 
114

>  <inspiration_ids>  (474) 
[82, 114]

>  <energy_score>  (474) 
701.5913261488838

>  <distance_score>  (474) 
13.64305074347335

>  <path>  (474) 
/opt/xchem-fragalysis-2/maxwin/BulkDock/SCRATCH/511025/C23255-P114/C23255-P114.minimised.mol

>  <scratch_subdir>  (474) 
/opt/xchem-fragalysis-2/maxwin/BulkDock/SCRATCH/511025/C23255-P114

>  <fragmenstein_runtime>  (474) 
19.422590732574463

>  <fragmenstein_outcome>  (474) 
too moved

>  <fragmenstein_mode>  (474) 
expansion

>  <fragmenstein_error>  (474) 


$$$$
C23257-P82
     RDKit          3D

 32 34  0  0  0  0  0  0  0  0999 V2000
   -0.5515  -14.2852   28.7642 O   0  0  0  0  0  0  0  0  0  0  0  0
   -0.6960  -14.5819   27.6108 C   0  0  0  0  0  0  0  0  0  0  0  0
   -0.0162  -14.1052   26.4214 N   0  0  0  0  0  0  0  0  0  0  0  0
    1.1376  -13.1739   26.2638 C   0  0  0  0  0  0  0  0  0  0  0  0
    2.0390  -12.9429   24.7374 C   0  0  0  0  0  0  0  0  0  0  0  0
    2.1180  -12.0961   23.7201 N   0  0  0  0  0  0  0  0  0  0  0  0
    3.1300  -12.6299   23.0179 C   0  0  0  0  0  0  0  0  0  0  0  0
    3.1380  -13.9732   23.3794 C   0  0  0  0  0  0  0  0  0  0  0  0
    3.3548  -13.5580   24.5908 N   0  0  0  0  0  0  0  0  0  0  0  0
   -1.7919  -15.6731   27.4690 C   0  0  0  0  0  0  0  0  0  0  0  0
   -2.2999  -16.2015   26.2890 C   0  0  0  0  0  0  0  0  0  0  0  0
   -3.2834  -17.1962   26.3598 C   0  0  0  0  0  0  0  0  0  0  0  0
   -3.8127  -17.6919   27.5014 N   0  0  0  0  0  0  0  0  0  0  0  0
   -3.3532  -17.1872   28.6672 C   0  0  0  0  0  0  0  0  0  0  0  0
   -3.9379  -17.6788   29.9683 C   0  0  0  0  0  0  0  0  0  0  0  0
   -4.1757  -19.1520   30.1934 C   0  0  0  0  0  0  0  0  0  0  0  0
   -3.0737  -18.4582   30.9345 C   0  0  0  0  0  0  0  0  0  0  0  0
   -2.3595  -16.1944   28.6647 C   0  0  0  0  0  0  0  0  0  0  0  0
   -0.3358  -14.6324   25.6266 H   0  0  0  0  0  0  0  0  0  0  0  0
    0.8182  -12.1970   26.6450 H   0  0  0  0  0  0  0  0  0  0  0  0
    1.8402  -13.5774   27.0043 H   0  0  0  0  0  0  0  0  0  0  0  0
    3.6017  -12.2005   22.1611 H   0  0  0  0  0  0  0  0  0  0  0  0
    3.4746  -14.9400   23.0746 H   0  0  0  0  0  0  0  0  0  0  0  0
    3.8258  -13.9894   25.3797 H   0  0  0  0  0  0  0  0  0  0  0  0
   -1.9657  -15.8696   25.3161 H   0  0  0  0  0  0  0  0  0  0  0  0
   -3.6883  -17.6317   25.4490 H   0  0  0  0  0  0  0  0  0  0  0  0
   -4.6793  -17.0172   30.4111 H   0  0  0  0  0  0  0  0  0  0  0  0
   -5.0613  -19.4329   30.7521 H   0  0  0  0  0  0  0  0  0  0  0  0
   -3.9077  -19.8454   29.4049 H   0  0  0  0  0  0  0  0  0  0  0  0
   -3.2131  -18.2795   31.9947 H   0  0  0  0  0  0  0  0  0  0  0  0
   -2.0540  -18.6962   30.6546 H   0  0  0  0  0  0  0  0  0  0  0  0
   -2.0215  -15.8191   29.6299 H   0  0  0  0  0  0  0  0  0  0  0  0
  1  2  2  0
  2  3  1  0
  3  4  1  0
  4  5  1  0
  5  6  2  0
  6  7  1  0
  7  8  2  0
  8  9  1  0
  2 10  1  0
 10 11  2  0
 11 12  1  0
 12 13  2  0
 13 14  1  0
 14 15  1  0
 15 16  1  0
 16 17  1  0
 14 18  2  0
  9  5  1  0
 18 10  1  0
 17 15  1  0
  3 19  1  0
  4 20  1  0
  4 21  1  0
  7 22  1  0
  8 23  1  0
  9 24  1  0
 11 25  1  0
 12 26  1  0
 15 27  1  0
 16 28  1  0
 16 29  1  0
 17 30  1  0
 17 31  1  0
 18 32  1  0
M  END
>  <Energy>  (475) 
98.106383581376519

>  <compound_id>  (475) 
23257

>  <target_id>  (475) 
1

>  <reference_id>  (475) 
82

>  <inspiration_ids>  (475) 
[82, 114]

>  <energy_score>  (475) 
77.5348611640461

>  <distance_score>  (475) 
15.078232253015042

>  <path>  (475) 
/opt/xchem-fragalysis-2/maxwin/BulkDock/SCRATCH/511025/C23257-P82/C23257-P82.minimised.mol

>  <scratch_subdir>  (475) 
/opt/xchem-fragalysis-2/maxwin/BulkDock/SCRATCH/511025/C23257-P82

>  <fragmenstein_runtime>  (475) 
32.2169930934906

>  <fragmenstein_outcome>  (475) 
too moved

>  <fragmenstein_mode>  (475) 
expansion

>  <fragmenstein_error>  (475) 


$$$$
C23257-P114
     RDKit          3D

 32 34  0  0  0  0  0  0  0  0999 V2000
   -2.7871  -14.8525   26.7478 O   0  0  0  0  0  0  0  0  0  0  0  0
   -2.3034  -14.7068   27.8362 C   0  0  0  0  0  0  0  0  0  0  0  0
   -1.2409  -13.8297   28.2881 N   0  0  0  0  0  0  0  0  0  0  0  0
   -0.3624  -12.9201   27.5394 C   0  0  0  0  0  0  0  0  0  0  0  0
    0.4030  -11.7969   28.2101 C   0  0  0  0  0  0  0  0  0  0  0  0
    0.2322  -10.4886   28.0433 N   0  0  0  0  0  0  0  0  0  0  0  0
    1.2367   -9.8564   28.7345 C   0  0  0  0  0  0  0  0  0  0  0  0
    2.1031  -10.7787   29.2543 C   0  0  0  0  0  0  0  0  0  0  0  0
    1.5676  -12.0003   28.9190 N   0  0  0  0  0  0  0  0  0  0  0  0
   -2.9073  -15.6904   28.8326 C   0  0  0  0  0  0  0  0  0  0  0  0
   -3.3103  -16.9495   28.3426 C   0  0  0  0  0  0  0  0  0  0  0  0
   -3.9675  -17.8391   29.1770 C   0  0  0  0  0  0  0  0  0  0  0  0
   -4.2574  -17.5628   30.4594 N   0  0  0  0  0  0  0  0  0  0  0  0
   -3.9102  -16.3421   30.9465 C   0  0  0  0  0  0  0  0  0  0  0  0
   -4.2703  -16.0163   32.3786 C   0  0  0  0  0  0  0  0  0  0  0  0
   -5.3725  -15.0229   32.6698 C   0  0  0  0  0  0  0  0  0  0  0  0
   -5.5918  -16.4790   32.9496 C   0  0  0  0  0  0  0  0  0  0  0  0
   -3.2294  -15.3925   30.1554 C   0  0  0  0  0  0  0  0  0  0  0  0
   -1.0358  -14.0323   29.2566 H   0  0  0  0  0  0  0  0  0  0  0  0
    0.3456  -13.5623   27.0039 H   0  0  0  0  0  0  0  0  0  0  0  0
   -1.0198  -12.4785   26.7887 H   0  0  0  0  0  0  0  0  0  0  0  0
    1.2711   -8.7780   28.8153 H   0  0  0  0  0  0  0  0  0  0  0  0
    3.0036  -10.6927   29.8461 H   0  0  0  0  0  0  0  0  0  0  0  0
    1.9706  -12.9055   29.1219 H   0  0  0  0  0  0  0  0  0  0  0  0
   -3.1237  -17.2247   27.3079 H   0  0  0  0  0  0  0  0  0  0  0  0
   -4.2870  -18.8151   28.8250 H   0  0  0  0  0  0  0  0  0  0  0  0
   -3.4351  -16.0362   33.0744 H   0  0  0  0  0  0  0  0  0  0  0  0
   -5.2486  -14.3597   33.5178 H   0  0  0  0  0  0  0  0  0  0  0  0
   -5.9218  -14.5886   31.8421 H   0  0  0  0  0  0  0  0  0  0  0  0
   -5.6071  -16.8126   33.9807 H   0  0  0  0  0  0  0  0  0  0  0  0
   -6.2639  -17.0370   32.3051 H   0  0  0  0  0  0  0  0  0  0  0  0
   -3.0057  -14.4168   30.5739 H   0  0  0  0  0  0  0  0  0  0  0  0
  1  2  2  0
  2  3  1  0
  3  4  1  0
  4  5  1  0
  5  6  2  0
  6  7  1  0
  7  8  2  0
  8  9  1  0
  2 10  1  0
 10 11  2  0
 11 12  1  0
 12 13  2  0
 13 14  1  0
 14 15  1  0
 15 16  1  0
 16 17  1  0
 14 18  2  0
  9  5  1  0
 18 10  1  0
 17 15  1  0
  3 19  1  0
  4 20  1  0
  4 21  1  0
  7 22  1  0
  8 23  1  0
  9 24  1  0
 11 25  1  0
 12 26  1  0
 15 27  1  0
 16 28  1  0
 16 29  1  0
 17 30  1  0
 17 31  1  0
 18 32  1  0
M  END
>  <Energy>  (476) 
19.684129231250605

>  <compound_id>  (476) 
23257

>  <target_id>  (476) 
1

>  <reference_id>  (476) 
114

>  <inspiration_ids>  (476) 
[82, 114]

>  <energy_score>  (476) 
-0.8873931860869106

>  <distance_score>  (476) 
15.66213909230813

>  <path>  (476) 
/opt/xchem-fragalysis-2/maxwin/BulkDock/SCRATCH/511025/C23257-P114/C23257-P114.minimised.mol

>  <scratch_subdir>  (476) 
/opt/xchem-fragalysis-2/maxwin/BulkDock/SCRATCH/511025/C23257-P114

>  <fragmenstein_runtime>  (476) 
18.07417869567871

>  <fragmenstein_outcome>  (476) 
too moved

>  <fragmenstein_mode>  (476) 
expansion

>  <fragmenstein_error>  (476) 


$$$$
C23258-P82
     RDKit          3D

 35 37  0  0  0  0  0  0  0  0999 V2000
   -3.3468  -17.2103   27.0057 O   0  0  0  0  0  0  0  0  0  0  0  0
   -2.3976  -17.8470   27.3155 C   0  0  0  0  0  0  0  0  0  0  0  0
   -0.8306  -17.5120   27.1746 N   0  0  0  0  0  0  0  0  0  0  0  0
   -0.0964  -16.1821   26.6743 C   0  0  0  0  0  0  0  0  0  0  0  0
    1.4114  -16.2159   26.0774 C   0  0  0  0  0  0  0  0  0  0  0  0
    2.2631  -14.8709   25.5859 C   0  0  0  0  0  0  0  0  0  0  0  0
    3.2881  -14.3132   26.2213 N   0  0  0  0  0  0  0  0  0  0  0  0
    3.8628  -13.4438   25.3794 C   0  0  0  0  0  0  0  0  0  0  0  0
    3.1395  -13.3957   24.2106 C   0  0  0  0  0  0  0  0  0  0  0  0
    2.2190  -14.3671   24.3157 N   0  0  0  0  0  0  0  0  0  0  0  0
   -2.8627  -19.2634   27.9434 C   0  0  0  0  0  0  0  0  0  0  0  0
   -3.8669  -20.0328   27.2789 C   0  0  0  0  0  0  0  0  0  0  0  0
   -4.2690  -21.3094   27.7270 C   0  0  0  0  0  0  0  0  0  0  0  0
   -3.7324  -21.7738   28.9016 C   0  0  0  0  0  0  0  0  0  0  0  0
   -3.0138  -20.9919   29.7129 N   0  0  0  0  0  0  0  0  0  0  0  0
   -2.5844  -19.7514   29.2392 C   0  0  0  0  0  0  0  0  0  0  0  0
   -1.7430  -18.9092   30.1866 C   0  0  0  0  0  0  0  0  0  0  0  0
   -1.0753  -19.5247   31.3959 C   0  0  0  0  0  0  0  0  0  0  0  0
   -0.2428  -19.1010   30.2242 C   0  0  0  0  0  0  0  0  0  0  0  0
   -0.2850  -18.2429   27.6167 H   0  0  0  0  0  0  0  0  0  0  0  0
   -0.1062  -15.5222   27.5484 H   0  0  0  0  0  0  0  0  0  0  0  0
   -0.7698  -15.7449   25.9293 H   0  0  0  0  0  0  0  0  0  0  0  0
    2.0488  -16.6836   26.8393 H   0  0  0  0  0  0  0  0  0  0  0  0
    1.4074  -16.8944   25.2157 H   0  0  0  0  0  0  0  0  0  0  0  0
    4.7457  -12.9245   25.7262 H   0  0  0  0  0  0  0  0  0  0  0  0
    3.1828  -12.7926   23.3159 H   0  0  0  0  0  0  0  0  0  0  0  0
    1.5605  -14.6703   23.6129 H   0  0  0  0  0  0  0  0  0  0  0  0
   -4.2490  -19.6624   26.3276 H   0  0  0  0  0  0  0  0  0  0  0  0
   -4.8912  -21.9477   27.1119 H   0  0  0  0  0  0  0  0  0  0  0  0
   -3.8265  -22.8031   29.2210 H   0  0  0  0  0  0  0  0  0  0  0  0
   -2.1095  -17.8950   30.3378 H   0  0  0  0  0  0  0  0  0  0  0  0
   -1.0293  -18.9302   32.3011 H   0  0  0  0  0  0  0  0  0  0  0  0
   -1.1997  -20.5867   31.5773 H   0  0  0  0  0  0  0  0  0  0  0  0
    0.3784  -18.2202   30.3395 H   0  0  0  0  0  0  0  0  0  0  0  0
    0.2031  -19.8885   29.6271 H   0  0  0  0  0  0  0  0  0  0  0  0
  1  2  2  0
  2  3  1  0
  3  4  1  0
  4  5  1  0
  5  6  1  0
  6  7  2  0
  7  8  1  0
  8  9  2  0
  9 10  1  0
  2 11  1  0
 11 12  2  0
 12 13  1  0
 13 14  2  0
 14 15  1  0
 15 16  2  0
 16 17  1  0
 17 18  1  0
 18 19  1  0
 10  6  1  0
 16 11  1  0
 19 17  1  0
  3 20  1  0
  4 21  1  0
  4 22  1  0
  5 23  1  0
  5 24  1  0
  8 25  1  0
  9 26  1  0
 10 27  1  0
 12 28  1  0
 13 29  1  0
 14 30  1  0
 17 31  1  0
 18 32  1  0
 18 33  1  0
 19 34  1  0
 19 35  1  0
M  END
>  <Energy>  (477) 
105.75280685537324

>  <compound_id>  (477) 
23258

>  <target_id>  (477) 
1

>  <reference_id>  (477) 
82

>  <inspiration_ids>  (477) 
[82, 114]

>  <energy_score>  (477) 
37.273129383193464

>  <distance_score>  (477) 
14.015668991169164

>  <path>  (477) 
/opt/xchem-fragalysis-2/maxwin/BulkDock/SCRATCH/511025/C23258-P82/C23258-P82.minimised.mol

>  <scratch_subdir>  (477) 
/opt/xchem-fragalysis-2/maxwin/BulkDock/SCRATCH/511025/C23258-P82

>  <fragmenstein_runtime>  (477) 
15.15273904800415

>  <fragmenstein_outcome>  (477) 
too moved

>  <fragmenstein_mode>  (477) 
expansion

>  <fragmenstein_error>  (477) 


$$$$
C23258-P114
     RDKit          3D

 35 37  0  0  0  0  0  0  0  0999 V2000
   -5.5562  -17.1835   22.8003 O   0  0  0  0  0  0  0  0  0  0  0  0
   -4.4980  -17.7381   22.8968 C   0  0  0  0  0  0  0  0  0  0  0  0
   -3.3644  -17.7609   22.0068 N   0  0  0  0  0  0  0  0  0  0  0  0
   -3.1801  -17.1878   20.6463 C   0  0  0  0  0  0  0  0  0  0  0  0
   -3.4214  -15.6775   20.6554 C   0  0  0  0  0  0  0  0  0  0  0  0
   -3.0835  -14.8152   19.4610 C   0  0  0  0  0  0  0  0  0  0  0  0
   -2.5123  -15.1884   18.3461 N   0  0  0  0  0  0  0  0  0  0  0  0
   -2.3658  -14.0595   17.5818 C   0  0  0  0  0  0  0  0  0  0  0  0
   -2.8241  -12.9526   18.2421 C   0  0  0  0  0  0  0  0  0  0  0  0
   -3.3477  -13.4544   19.3953 N   0  0  0  0  0  0  0  0  0  0  0  0
   -4.3271  -18.4736   24.2223 C   0  0  0  0  0  0  0  0  0  0  0  0
   -4.8889  -17.8690   25.3730 C   0  0  0  0  0  0  0  0  0  0  0  0
   -4.8607  -18.5014   26.6186 C   0  0  0  0  0  0  0  0  0  0  0  0
   -4.2653  -19.7404   26.6916 C   0  0  0  0  0  0  0  0  0  0  0  0
   -3.7567  -20.3774   25.6127 N   0  0  0  0  0  0  0  0  0  0  0  0
   -3.7978  -19.7685   24.3745 C   0  0  0  0  0  0  0  0  0  0  0  0
   -3.3197  -20.5950   23.1901 C   0  0  0  0  0  0  0  0  0  0  0  0
   -1.8395  -20.6904   22.8911 C   0  0  0  0  0  0  0  0  0  0  0  0
   -2.5730  -21.8948   23.3969 C   0  0  0  0  0  0  0  0  0  0  0  0
   -2.6063  -18.2680   22.4498 H   0  0  0  0  0  0  0  0  0  0  0  0
   -2.1612  -17.4293   20.3283 H   0  0  0  0  0  0  0  0  0  0  0  0
   -3.8893  -17.6871   19.9789 H   0  0  0  0  0  0  0  0  0  0  0  0
   -2.8045  -15.3121   21.4820 H   0  0  0  0  0  0  0  0  0  0  0  0
   -4.4797  -15.5191   20.8942 H   0  0  0  0  0  0  0  0  0  0  0  0
   -1.9349  -14.1400   16.5960 H   0  0  0  0  0  0  0  0  0  0  0  0
   -2.8862  -11.9062   17.9876 H   0  0  0  0  0  0  0  0  0  0  0  0
   -3.8972  -12.9115   20.0428 H   0  0  0  0  0  0  0  0  0  0  0  0
   -5.3623  -16.8920   25.2878 H   0  0  0  0  0  0  0  0  0  0  0  0
   -5.2830  -18.0306   27.4993 H   0  0  0  0  0  0  0  0  0  0  0  0
   -4.1858  -20.2787   27.6312 H   0  0  0  0  0  0  0  0  0  0  0  0
   -3.9957  -20.6033   22.3360 H   0  0  0  0  0  0  0  0  0  0  0  0
   -1.1343  -20.2202   23.5677 H   0  0  0  0  0  0  0  0  0  0  0  0
   -1.5290  -20.6884   21.8523 H   0  0  0  0  0  0  0  0  0  0  0  0
   -2.7725  -22.7040   22.7034 H   0  0  0  0  0  0  0  0  0  0  0  0
   -2.3695  -22.2285   24.4085 H   0  0  0  0  0  0  0  0  0  0  0  0
  1  2  2  0
  2  3  1  0
  3  4  1  0
  4  5  1  0
  5  6  1  0
  6  7  2  0
  7  8  1  0
  8  9  2  0
  9 10  1  0
  2 11  1  0
 11 12  2  0
 12 13  1  0
 13 14  2  0
 14 15  1  0
 15 16  2  0
 16 17  1  0
 17 18  1  0
 18 19  1  0
 10  6  1  0
 16 11  1  0
 19 17  1  0
  3 20  1  0
  4 21  1  0
  4 22  1  0
  5 23  1  0
  5 24  1  0
  8 25  1  0
  9 26  1  0
 10 27  1  0
 12 28  1  0
 13 29  1  0
 14 30  1  0
 17 31  1  0
 18 32  1  0
 18 33  1  0
 19 34  1  0
 19 35  1  0
M  END
>  <Energy>  (478) 
49.635201070554821

>  <compound_id>  (478) 
23258

>  <target_id>  (478) 
1

>  <reference_id>  (478) 
114

>  <inspiration_ids>  (478) 
[82, 114]

>  <energy_score>  (478) 
-12.059551581005792

>  <distance_score>  (478) 
15.100972591406775

>  <path>  (478) 
/opt/xchem-fragalysis-2/maxwin/BulkDock/SCRATCH/511025/C23258-P114/C23258-P114.minimised.mol

>  <scratch_subdir>  (478) 
/opt/xchem-fragalysis-2/maxwin/BulkDock/SCRATCH/511025/C23258-P114

>  <fragmenstein_runtime>  (478) 
22.212048530578613

>  <fragmenstein_outcome>  (478) 
too moved

>  <fragmenstein_mode>  (478) 
expansion

>  <fragmenstein_error>  (478) 


$$$$
C23259-P82
     RDKit          3D

 34 36  0  0  0  0  0  0  0  0999 V2000
   -1.0792  -15.2460   26.1992 O   0  0  0  0  0  0  0  0  0  0  0  0
   -1.4646  -15.6766   25.1740 C   0  0  0  0  0  0  0  0  0  0  0  0
   -1.1015  -15.2869   23.7520 N   0  0  0  0  0  0  0  0  0  0  0  0
   -0.0905  -14.3011   23.2331 C   0  0  0  0  0  0  0  0  0  0  0  0
   -0.3386  -12.4688   22.5608 C   0  0  0  0  0  0  0  0  0  0  0  0
   -1.4031  -11.9134   21.3839 N   0  0  0  0  0  0  0  0  0  0  0  0
   -1.3207  -10.5538   21.1393 C   0  0  0  0  0  0  0  0  0  0  0  0
   -0.2633  -10.0718   21.8225 C   0  0  0  0  0  0  0  0  0  0  0  0
    0.3568  -11.1460   22.4955 N   0  0  0  0  0  0  0  0  0  0  0  0
   -2.5447  -16.7146   24.8898 N   0  0  0  0  0  0  0  0  0  0  0  0
   -3.4511  -17.3819   25.7716 C   0  0  0  0  0  0  0  0  0  0  0  0
   -3.4804  -17.0399   27.1330 C   0  0  0  0  0  0  0  0  0  0  0  0
   -4.4076  -17.6055   28.0129 C   0  0  0  0  0  0  0  0  0  0  0  0
   -5.3034  -18.5169   27.5114 C   0  0  0  0  0  0  0  0  0  0  0  0
   -5.3000  -18.9178   26.2251 N   0  0  0  0  0  0  0  0  0  0  0  0
   -4.3874  -18.3686   25.3436 C   0  0  0  0  0  0  0  0  0  0  0  0
   -4.5407  -18.9403   23.9334 C   0  0  0  0  0  0  0  0  0  0  0  0
   -4.4800  -18.1045   22.6817 C   0  0  0  0  0  0  0  0  0  0  0  0
   -3.4109  -19.1311   22.9570 C   0  0  0  0  0  0  0  0  0  0  0  0
   -1.5526  -15.9113   23.1102 H   0  0  0  0  0  0  0  0  0  0  0  0
    0.2023  -14.8866   22.3790 H   0  0  0  0  0  0  0  0  0  0  0  0
    0.7351  -14.3553   23.9659 H   0  0  0  0  0  0  0  0  0  0  0  0
   -1.9848  -10.0577   20.4463 H   0  0  0  0  0  0  0  0  0  0  0  0
    0.1789   -9.0861   21.8160 H   0  0  0  0  0  0  0  0  0  0  0  0
    1.2344  -11.1536   22.9633 H   0  0  0  0  0  0  0  0  0  0  0  0
   -2.5654  -16.9121   23.9117 H   0  0  0  0  0  0  0  0  0  0  0  0
   -2.7890  -16.3006   27.5306 H   0  0  0  0  0  0  0  0  0  0  0  0
   -4.4325  -17.3141   29.0570 H   0  0  0  0  0  0  0  0  0  0  0  0
   -6.0772  -18.9384   28.1397 H   0  0  0  0  0  0  0  0  0  0  0  0
   -5.2856  -19.7386   23.8999 H   0  0  0  0  0  0  0  0  0  0  0  0
   -4.2628  -17.0482   22.7554 H   0  0  0  0  0  0  0  0  0  0  0  0
   -5.2015  -18.3267   21.9003 H   0  0  0  0  0  0  0  0  0  0  0  0
   -2.4089  -18.8320   23.2294 H   0  0  0  0  0  0  0  0  0  0  0  0
   -3.4193  -20.0388   22.3593 H   0  0  0  0  0  0  0  0  0  0  0  0
  1  2  2  0
  2  3  1  0
  3  4  1  0
  4  5  1  0
  5  6  2  0
  6  7  1  0
  7  8  2  0
  8  9  1  0
  2 10  1  0
 10 11  1  0
 11 12  2  0
 12 13  1  0
 13 14  2  0
 14 15  1  0
 15 16  2  0
 16 17  1  0
 17 18  1  0
 18 19  1  0
  9  5  1  0
 16 11  1  0
 19 17  1  0
  3 20  1  0
  4 21  1  0
  4 22  1  0
  7 23  1  0
  8 24  1  0
  9 25  1  0
 10 26  1  0
 12 27  1  0
 13 28  1  0
 14 29  1  0
 17 30  1  0
 18 31  1  0
 18 32  1  0
 19 33  1  0
 19 34  1  0
M  END
>  <Energy>  (479) 
149.57538771146187

>  <compound_id>  (479) 
23259

>  <target_id>  (479) 
1

>  <reference_id>  (479) 
82

>  <inspiration_ids>  (479) 
[82, 114]

>  <energy_score>  (479) 
153.80262975596816

>  <distance_score>  (479) 
14.416753736067301

>  <path>  (479) 
/opt/xchem-fragalysis-2/maxwin/BulkDock/SCRATCH/511025/C23259-P82/C23259-P82.minimised.mol

>  <scratch_subdir>  (479) 
/opt/xchem-fragalysis-2/maxwin/BulkDock/SCRATCH/511025/C23259-P82

>  <fragmenstein_runtime>  (479) 
26.691253185272217

>  <fragmenstein_outcome>  (479) 
too moved

>  <fragmenstein_mode>  (479) 
expansion

>  <fragmenstein_error>  (479) 


$$$$
C23259-P114
     RDKit          3D

 34 36  0  0  0  0  0  0  0  0999 V2000
   -1.5273  -15.1735   22.1355 O   0  0  0  0  0  0  0  0  0  0  0  0
   -0.7013  -15.1041   22.9915 C   0  0  0  0  0  0  0  0  0  0  0  0
    0.3154  -13.8573   23.4019 N   0  0  0  0  0  0  0  0  0  0  0  0
    0.4523  -11.9385   22.7211 C   0  0  0  0  0  0  0  0  0  0  0  0
   -0.3811  -10.5328   21.9121 C   0  0  0  0  0  0  0  0  0  0  0  0
   -0.3514   -9.2559   22.2703 N   0  0  0  0  0  0  0  0  0  0  0  0
   -1.4587   -8.6817   21.7452 C   0  0  0  0  0  0  0  0  0  0  0  0
   -2.0466   -9.4904   20.8194 C   0  0  0  0  0  0  0  0  0  0  0  0
   -1.3736  -10.6701   20.9363 N   0  0  0  0  0  0  0  0  0  0  0  0
   -0.3487  -16.0817   24.0908 N   0  0  0  0  0  0  0  0  0  0  0  0
   -0.9657  -17.3151   24.4778 C   0  0  0  0  0  0  0  0  0  0  0  0
   -2.2023  -17.7035   23.9356 C   0  0  0  0  0  0  0  0  0  0  0  0
   -2.9581  -18.7389   24.5086 C   0  0  0  0  0  0  0  0  0  0  0  0
   -2.4556  -19.3832   25.6191 C   0  0  0  0  0  0  0  0  0  0  0  0
   -1.2668  -19.0662   26.1704 N   0  0  0  0  0  0  0  0  0  0  0  0
   -0.5305  -18.0401   25.6148 C   0  0  0  0  0  0  0  0  0  0  0  0
    0.7860  -17.6982   26.2955 C   0  0  0  0  0  0  0  0  0  0  0  0
    0.9198  -17.8114   27.7982 C   0  0  0  0  0  0  0  0  0  0  0  0
    0.8991  -16.4581   27.1559 C   0  0  0  0  0  0  0  0  0  0  0  0
    0.8372  -14.0979   24.2344 H   0  0  0  0  0  0  0  0  0  0  0  0
   -0.4474  -12.3830   22.5498 H   0  0  0  0  0  0  0  0  0  0  0  0
    1.3358  -11.7319   23.3153 H   0  0  0  0  0  0  0  0  0  0  0  0
   -1.8171   -7.7359   22.1074 H   0  0  0  0  0  0  0  0  0  0  0  0
   -2.9052   -9.3769   20.1752 H   0  0  0  0  0  0  0  0  0  0  0  0
   -1.5811  -11.5143   20.4231 H   0  0  0  0  0  0  0  0  0  0  0  0
    0.4541  -15.7450   24.5884 H   0  0  0  0  0  0  0  0  0  0  0  0
   -2.6154  -17.1740   23.0805 H   0  0  0  0  0  0  0  0  0  0  0  0
   -3.9154  -19.0216   24.0855 H   0  0  0  0  0  0  0  0  0  0  0  0
   -2.9958  -20.1920   26.1003 H   0  0  0  0  0  0  0  0  0  0  0  0
    1.6689  -17.9844   25.7290 H   0  0  0  0  0  0  0  0  0  0  0  0
    1.8588  -18.1816   28.1923 H   0  0  0  0  0  0  0  0  0  0  0  0
    0.0516  -18.1181   28.3719 H   0  0  0  0  0  0  0  0  0  0  0  0
    0.0160  -15.8476   27.3117 H   0  0  0  0  0  0  0  0  0  0  0  0
    1.8273  -15.8999   27.1274 H   0  0  0  0  0  0  0  0  0  0  0  0
  1  2  2  0
  2  3  1  0
  3  4  1  0
  4  5  1  0
  5  6  2  0
  6  7  1  0
  7  8  2  0
  8  9  1  0
  2 10  1  0
 10 11  1  0
 11 12  2  0
 12 13  1  0
 13 14  2  0
 14 15  1  0
 15 16  2  0
 16 17  1  0
 17 18  1  0
 18 19  1  0
  9  5  1  0
 16 11  1  0
 19 17  1  0
  3 20  1  0
  4 21  1  0
  4 22  1  0
  7 23  1  0
  8 24  1  0
  9 25  1  0
 10 26  1  0
 12 27  1  0
 13 28  1  0
 14 29  1  0
 17 30  1  0
 18 31  1  0
 18 32  1  0
 19 33  1  0
 19 34  1  0
M  END
>  <Energy>  (480) 
215.95499764873003

>  <compound_id>  (480) 
23259

>  <target_id>  (480) 
1

>  <reference_id>  (480) 
114

>  <inspiration_ids>  (480) 
[82, 114]

>  <energy_score>  (480) 
220.18223969322668

>  <distance_score>  (480) 
15.339871793992643

>  <path>  (480) 
/opt/xchem-fragalysis-2/maxwin/BulkDock/SCRATCH/511025/C23259-P114/C23259-P114.minimised.mol

>  <scratch_subdir>  (480) 
/opt/xchem-fragalysis-2/maxwin/BulkDock/SCRATCH/511025/C23259-P114

>  <fragmenstein_runtime>  (480) 
25.4904625415802

>  <fragmenstein_outcome>  (480) 
too moved

>  <fragmenstein_mode>  (480) 
expansion

>  <fragmenstein_error>  (480) 


$$$$
C23260-P82
     RDKit          3D

 36 38  0  0  0  0  0  0  0  0999 V2000
   -3.9845   -9.1381   21.7544 O   0  0  0  0  0  0  0  0  0  0  0  0
   -3.1200   -9.3905   22.5575 C   0  0  0  0  0  0  0  0  0  0  0  0
   -3.1248  -10.3781   23.7950 N   0  0  0  0  0  0  0  0  0  0  0  0
   -4.4008  -11.6677   24.4138 C   0  0  0  0  0  0  0  0  0  0  0  0
   -5.8569  -12.5307   24.5610 C   0  0  0  0  0  0  0  0  0  0  0  0
   -6.8261  -12.7714   23.5949 C   0  0  0  0  0  0  0  0  0  0  0  0
   -7.8075  -13.7447   23.8466 C   0  0  0  0  0  0  0  0  0  0  0  0
   -7.9112  -14.5073   24.9675 N   0  0  0  0  0  0  0  0  0  0  0  0
   -6.9891  -14.3088   25.9310 C   0  0  0  0  0  0  0  0  0  0  0  0
   -7.0624  -15.1235   27.2003 C   0  0  0  0  0  0  0  0  0  0  0  0
   -5.9952  -16.1513   27.5027 C   0  0  0  0  0  0  0  0  0  0  0  0
   -7.3778  -16.6014   27.1387 C   0  0  0  0  0  0  0  0  0  0  0  0
   -5.9747  -13.3507   25.7453 C   0  0  0  0  0  0  0  0  0  0  0  0
   -1.2812   -8.7132   22.3970 C   0  0  0  0  0  0  0  0  0  0  0  0
   -0.8826   -8.9366   21.3035 O   0  0  0  0  0  0  0  0  0  0  0  0
   -0.1904   -8.0352   23.6155 N   0  0  0  0  0  0  0  0  0  0  0  0
    1.4012   -7.7336   23.5813 C   0  0  0  0  0  0  0  0  0  0  0  0
    2.7595   -7.0694   24.1789 N   0  0  0  0  0  0  0  0  0  0  0  0
    4.2525   -7.2494   23.9526 C   0  0  0  0  0  0  0  0  0  0  0  0
    4.1238   -8.1603   22.9945 C   0  0  0  0  0  0  0  0  0  0  0  0
    2.4691   -8.4515   22.6333 N   0  0  0  0  0  0  0  0  0  0  0  0
   -2.2875  -10.2811   24.2964 H   0  0  0  0  0  0  0  0  0  0  0  0
   -3.8960  -12.6354   24.2964 H   0  0  0  0  0  0  0  0  0  0  0  0
   -3.7676  -12.0356   25.3115 H   0  0  0  0  0  0  0  0  0  0  0  0
   -6.8082  -12.2605   22.6362 H   0  0  0  0  0  0  0  0  0  0  0  0
   -8.5673  -13.9471   23.0943 H   0  0  0  0  0  0  0  0  0  0  0  0
   -7.4743  -14.5912   28.0548 H   0  0  0  0  0  0  0  0  0  0  0  0
   -5.2062  -16.3154   26.7780 H   0  0  0  0  0  0  0  0  0  0  0  0
   -5.6810  -16.2659   28.5342 H   0  0  0  0  0  0  0  0  0  0  0  0
   -7.5272  -17.0535   26.1647 H   0  0  0  0  0  0  0  0  0  0  0  0
   -8.0002  -17.0158   27.9226 H   0  0  0  0  0  0  0  0  0  0  0  0
   -5.2312  -13.2629   26.5374 H   0  0  0  0  0  0  0  0  0  0  0  0
   -0.7272   -7.8342   24.4501 H   0  0  0  0  0  0  0  0  0  0  0  0
    5.1248   -6.6441   24.1316 H   0  0  0  0  0  0  0  0  0  0  0  0
    4.5388   -9.1539   23.1981 H   0  0  0  0  0  0  0  0  0  0  0  0
    2.0991   -9.2278   22.1072 H   0  0  0  0  0  0  0  0  0  0  0  0
  1  2  2  0
  2  3  1  0
  3  4  1  0
  4  5  1  0
  5  6  2  0
  6  7  1  0
  7  8  2  0
  8  9  1  0
  9 10  1  0
 10 11  1  0
 11 12  1  0
  9 13  2  0
  2 14  1  0
 14 15  2  0
 14 16  1  0
 16 17  1  0
 17 18  2  0
 18 19  1  0
 19 20  2  0
 20 21  1  0
 13  5  1  0
 21 17  1  0
 12 10  1  0
  3 22  1  0
  4 23  1  0
  4 24  1  0
  6 25  1  0
  7 26  1  0
 10 27  1  0
 11 28  1  0
 11 29  1  0
 12 30  1  0
 12 31  1  0
 13 32  1  0
 16 33  1  0
 19 34  1  0
 20 35  1  0
 21 36  1  0
M  END
>  <Energy>  (481) 
516.54350518111517

>  <compound_id>  (481) 
23260

>  <target_id>  (481) 
1

>  <reference_id>  (481) 
82

>  <inspiration_ids>  (481) 
[82, 114]

>  <energy_score>  (481) 
483.4549189806288

>  <distance_score>  (481) 
14.048502704711053

>  <path>  (481) 
/opt/xchem-fragalysis-2/maxwin/BulkDock/SCRATCH/511025/C23260-P82/C23260-P82.minimised.mol

>  <scratch_subdir>  (481) 
/opt/xchem-fragalysis-2/maxwin/BulkDock/SCRATCH/511025/C23260-P82

>  <fragmenstein_runtime>  (481) 
22.508655309677124

>  <fragmenstein_outcome>  (481) 
too moved

>  <fragmenstein_mode>  (481) 
expansion

>  <fragmenstein_error>  (481) 


$$$$
C23260-P114
     RDKit          3D

 36 38  0  0  0  0  0  0  0  0999 V2000
    3.7229  -14.2128   23.8522 O   0  0  0  0  0  0  0  0  0  0  0  0
    3.0458  -13.2590   24.0086 C   0  0  0  0  0  0  0  0  0  0  0  0
    1.9639  -12.9427   25.1312 N   0  0  0  0  0  0  0  0  0  0  0  0
    1.5284  -13.8098   26.5352 C   0  0  0  0  0  0  0  0  0  0  0  0
    1.5278  -14.1850   28.2302 C   0  0  0  0  0  0  0  0  0  0  0  0
    1.1209  -13.2995   29.2259 C   0  0  0  0  0  0  0  0  0  0  0  0
    0.6489  -13.7998   30.4494 C   0  0  0  0  0  0  0  0  0  0  0  0
    0.6144  -15.1010   30.8070 N   0  0  0  0  0  0  0  0  0  0  0  0
    1.1560  -15.9769   29.9429 C   0  0  0  0  0  0  0  0  0  0  0  0
    1.2325  -17.4338   30.3327 C   0  0  0  0  0  0  0  0  0  0  0  0
    0.0229  -18.1188   30.9272 C   0  0  0  0  0  0  0  0  0  0  0  0
    0.4718  -18.4752   29.5425 C   0  0  0  0  0  0  0  0  0  0  0  0
    1.6498  -15.5355   28.6958 C   0  0  0  0  0  0  0  0  0  0  0  0
    2.9991  -11.5677   23.0867 C   0  0  0  0  0  0  0  0  0  0  0  0
    1.9223  -11.4745   22.5607 O   0  0  0  0  0  0  0  0  0  0  0  0
    4.4426  -10.1361   23.2564 N   0  0  0  0  0  0  0  0  0  0  0  0
    4.4537   -8.2894   22.8545 C   0  0  0  0  0  0  0  0  0  0  0  0
    5.5673   -7.1165   22.7013 N   0  0  0  0  0  0  0  0  0  0  0  0
    6.7780   -6.8294   23.5485 C   0  0  0  0  0  0  0  0  0  0  0  0
    6.4865   -7.6306   24.5748 C   0  0  0  0  0  0  0  0  0  0  0  0
    5.0156   -7.6528   24.1697 N   0  0  0  0  0  0  0  0  0  0  0  0
    1.5068  -12.0710   24.9243 H   0  0  0  0  0  0  0  0  0  0  0  0
    1.2829  -12.8059   26.8770 H   0  0  0  0  0  0  0  0  0  0  0  0
    2.6002  -13.9741   26.7214 H   0  0  0  0  0  0  0  0  0  0  0  0
    1.0724  -12.2312   29.0459 H   0  0  0  0  0  0  0  0  0  0  0  0
    0.2603  -13.1172   31.2017 H   0  0  0  0  0  0  0  0  0  0  0  0
    2.1918  -17.7418   30.7418 H   0  0  0  0  0  0  0  0  0  0  0  0
   -0.8896  -17.5428   31.0392 H   0  0  0  0  0  0  0  0  0  0  0  0
    0.1916  -18.8333   31.7243 H   0  0  0  0  0  0  0  0  0  0  0  0
    0.9426  -19.4401   29.3952 H   0  0  0  0  0  0  0  0  0  0  0  0
   -0.1556  -18.1555   28.7186 H   0  0  0  0  0  0  0  0  0  0  0  0
    2.0469  -16.3250   28.0658 H   0  0  0  0  0  0  0  0  0  0  0  0
    5.3140  -10.5120   23.6801 H   0  0  0  0  0  0  0  0  0  0  0  0
    7.5958   -6.2132   23.2132 H   0  0  0  0  0  0  0  0  0  0  0  0
    6.8401   -8.0497   25.5022 H   0  0  0  0  0  0  0  0  0  0  0  0
    4.7213   -6.7244   24.0231 H   0  0  0  0  0  0  0  0  0  0  0  0
  1  2  2  0
  2  3  1  0
  3  4  1  0
  4  5  1  0
  5  6  2  0
  6  7  1  0
  7  8  2  0
  8  9  1  0
  9 10  1  0
 10 11  1  0
 11 12  1  0
  9 13  2  0
  2 14  1  0
 14 15  2  0
 14 16  1  0
 16 17  1  0
 17 18  2  0
 18 19  1  0
 19 20  2  0
 20 21  1  0
 13  5  1  0
 21 17  1  0
 12 10  1  0
  3 22  1  0
  4 23  1  0
  4 24  1  0
  6 25  1  0
  7 26  1  0
 10 27  1  0
 11 28  1  0
 11 29  1  0
 12 30  1  0
 12 31  1  0
 13 32  1  0
 16 33  1  0
 19 34  1  0
 20 35  1  0
 21 36  1  0
M  END
>  <Energy>  (482) 
628.70016418677505

>  <compound_id>  (482) 
23260

>  <target_id>  (482) 
1

>  <reference_id>  (482) 
114

>  <inspiration_ids>  (482) 
[82, 114]

>  <energy_score>  (482) 
595.6115779862891

>  <distance_score>  (482) 
14.82339060301084

>  <path>  (482) 
/opt/xchem-fragalysis-2/maxwin/BulkDock/SCRATCH/511025/C23260-P114/C23260-P114.minimised.mol

>  <scratch_subdir>  (482) 
/opt/xchem-fragalysis-2/maxwin/BulkDock/SCRATCH/511025/C23260-P114

>  <fragmenstein_runtime>  (482) 
19.65697455406189

>  <fragmenstein_outcome>  (482) 
too moved

>  <fragmenstein_mode>  (482) 
expansion

>  <fragmenstein_error>  (482) 


$$$$
C23261-P82
     RDKit          3D

 32 34  0  0  0  0  0  0  0  0999 V2000
    1.6355  -11.2548   28.4590 O   0  0  0  0  0  0  0  0  0  0  0  0
    1.4345  -12.0856   27.6076 C   0  0  0  0  0  0  0  0  0  0  0  0
    1.6081  -13.5535   27.6378 N   0  0  0  0  0  0  0  0  0  0  0  0
    1.9743  -14.4531   28.7304 C   0  0  0  0  0  0  0  0  0  0  0  0
    0.7640  -15.4018   29.1157 C   0  0  0  0  0  0  0  0  0  0  0  0
   -0.1122  -15.9761   28.1778 C   0  0  0  0  0  0  0  0  0  0  0  0
   -1.1253  -16.8471   28.5937 C   0  0  0  0  0  0  0  0  0  0  0  0
   -1.3432  -17.2002   29.8754 N   0  0  0  0  0  0  0  0  0  0  0  0
   -0.5223  -16.6637   30.8108 C   0  0  0  0  0  0  0  0  0  0  0  0
   -0.7316  -17.0488   32.2570 C   0  0  0  0  0  0  0  0  0  0  0  0
   -2.1283  -17.0747   32.8354 C   0  0  0  0  0  0  0  0  0  0  0  0
   -1.1660  -16.0091   33.2653 C   0  0  0  0  0  0  0  0  0  0  0  0
    0.5275  -15.7818   30.4521 C   0  0  0  0  0  0  0  0  0  0  0  0
    0.7082  -11.4016   26.1913 C   0  0  0  0  0  0  0  0  0  0  0  0
    0.8313  -11.0663   24.3024 N   0  0  0  0  0  0  0  0  0  0  0  0
    0.2921   -8.9827   23.9795 C   0  0  0  0  0  0  0  0  0  0  0  0
   -0.1936   -8.4056   25.6964 C   0  0  0  0  0  0  0  0  0  0  0  0
   -0.1329   -9.7905   27.0078 N   0  0  0  0  0  0  0  0  0  0  0  0
    1.4224  -13.9273   26.7159 H   0  0  0  0  0  0  0  0  0  0  0  0
    2.8287  -15.0635   28.4277 H   0  0  0  0  0  0  0  0  0  0  0  0
    2.2396  -13.8411   29.5979 H   0  0  0  0  0  0  0  0  0  0  0  0
   -0.0274  -15.7575   27.1196 H   0  0  0  0  0  0  0  0  0  0  0  0
   -1.8036  -17.2934   27.8718 H   0  0  0  0  0  0  0  0  0  0  0  0
   -0.0645  -17.8276   32.6186 H   0  0  0  0  0  0  0  0  0  0  0  0
   -2.3685  -17.8680   33.5338 H   0  0  0  0  0  0  0  0  0  0  0  0
   -2.9559  -16.7938   32.1924 H   0  0  0  0  0  0  0  0  0  0  0  0
   -0.7562  -16.0725   34.2665 H   0  0  0  0  0  0  0  0  0  0  0  0
   -1.3596  -14.9977   32.9267 H   0  0  0  0  0  0  0  0  0  0  0  0
    1.1669  -15.3940   31.2421 H   0  0  0  0  0  0  0  0  0  0  0  0
    0.1340   -8.6151   22.9523 H   0  0  0  0  0  0  0  0  0  0  0  0
   -0.6472   -7.5132   26.1046 H   0  0  0  0  0  0  0  0  0  0  0  0
    0.2286   -9.5656   27.9263 H   0  0  0  0  0  0  0  0  0  0  0  0
  1  2  2  0
  2  3  1  0
  3  4  1  0
  4  5  1  0
  5  6  2  0
  6  7  1  0
  7  8  2  0
  8  9  1  0
  9 10  1  0
 10 11  1  0
 11 12  1  0
  9 13  2  0
  2 14  1  0
 14 15  2  0
 15 16  1  0
 16 17  2  0
 17 18  1  0
 13  5  1  0
 18 14  1  0
 12 10  1  0
  3 19  1  0
  4 20  1  0
  4 21  1  0
  6 22  1  0
  7 23  1  0
 10 24  1  0
 11 25  1  0
 11 26  1  0
 12 27  1  0
 12 28  1  0
 13 29  1  0
 16 30  1  0
 17 31  1  0
 18 32  1  0
M  END
>  <Energy>  (483) 
675.66552650482879

>  <compound_id>  (483) 
23261

>  <target_id>  (483) 
1

>  <reference_id>  (483) 
82

>  <inspiration_ids>  (483) 
[82, 114]

>  <energy_score>  (483) 
632.7875120820509

>  <distance_score>  (483) 
16.126087433918574

>  <path>  (483) 
/opt/xchem-fragalysis-2/maxwin/BulkDock/SCRATCH/511025/C23261-P82/C23261-P82.minimised.mol

>  <scratch_subdir>  (483) 
/opt/xchem-fragalysis-2/maxwin/BulkDock/SCRATCH/511025/C23261-P82

>  <fragmenstein_runtime>  (483) 
25.481473922729492

>  <fragmenstein_outcome>  (483) 
too moved

>  <fragmenstein_mode>  (483) 
expansion

>  <fragmenstein_error>  (483) 


$$$$
C23261-P114
     RDKit          3D

 32 34  0  0  0  0  0  0  0  0999 V2000
   -0.0965  -15.4581   27.7883 O   0  0  0  0  0  0  0  0  0  0  0  0
   -0.4355  -16.0327   26.7940 C   0  0  0  0  0  0  0  0  0  0  0  0
   -1.6146  -16.8194   26.5182 N   0  0  0  0  0  0  0  0  0  0  0  0
   -2.8023  -17.0781   27.3279 C   0  0  0  0  0  0  0  0  0  0  0  0
   -3.4138  -18.4644   27.4617 C   0  0  0  0  0  0  0  0  0  0  0  0
   -3.5123  -19.0896   28.7126 C   0  0  0  0  0  0  0  0  0  0  0  0
   -4.2227  -20.2791   28.8365 C   0  0  0  0  0  0  0  0  0  0  0  0
   -4.8471  -20.8929   27.8105 N   0  0  0  0  0  0  0  0  0  0  0  0
   -4.7551  -20.3130   26.5884 C   0  0  0  0  0  0  0  0  0  0  0  0
   -5.4393  -20.9835   25.4202 C   0  0  0  0  0  0  0  0  0  0  0  0
   -5.0904  -22.4108   25.0687 C   0  0  0  0  0  0  0  0  0  0  0  0
   -4.6698  -21.3007   24.1560 C   0  0  0  0  0  0  0  0  0  0  0  0
   -4.0606  -19.1024   26.3995 C   0  0  0  0  0  0  0  0  0  0  0  0
    0.4478  -15.8296   25.6084 C   0  0  0  0  0  0  0  0  0  0  0  0
    0.2915  -16.2995   24.3777 N   0  0  0  0  0  0  0  0  0  0  0  0
    1.3949  -15.8625   23.6621 C   0  0  0  0  0  0  0  0  0  0  0  0
    2.2094  -15.0793   24.4404 C   0  0  0  0  0  0  0  0  0  0  0  0
    1.5713  -15.0114   25.6444 N   0  0  0  0  0  0  0  0  0  0  0  0
   -1.6110  -17.0880   25.5376 H   0  0  0  0  0  0  0  0  0  0  0  0
   -2.5741  -16.6934   28.3299 H   0  0  0  0  0  0  0  0  0  0  0  0
   -3.5800  -16.4118   26.9334 H   0  0  0  0  0  0  0  0  0  0  0  0
   -3.0611  -18.6480   29.5970 H   0  0  0  0  0  0  0  0  0  0  0  0
   -4.3153  -20.7731   29.8003 H   0  0  0  0  0  0  0  0  0  0  0  0
   -6.4816  -20.7070   25.2910 H   0  0  0  0  0  0  0  0  0  0  0  0
   -4.3256  -22.9108   25.6530 H   0  0  0  0  0  0  0  0  0  0  0  0
   -5.8910  -23.0643   24.7431 H   0  0  0  0  0  0  0  0  0  0  0  0
   -3.6106  -21.0746   24.1077 H   0  0  0  0  0  0  0  0  0  0  0  0
   -5.1873  -21.2029   23.2088 H   0  0  0  0  0  0  0  0  0  0  0  0
   -4.0442  -18.6549   25.4093 H   0  0  0  0  0  0  0  0  0  0  0  0
    1.5320  -16.1347   22.6228 H   0  0  0  0  0  0  0  0  0  0  0  0
    3.1294  -14.5552   24.2506 H   0  0  0  0  0  0  0  0  0  0  0  0
    1.8545  -14.4808   26.4576 H   0  0  0  0  0  0  0  0  0  0  0  0
  1  2  2  0
  2  3  1  0
  3  4  1  0
  4  5  1  0
  5  6  2  0
  6  7  1  0
  7  8  2  0
  8  9  1  0
  9 10  1  0
 10 11  1  0
 11 12  1  0
  9 13  2  0
  2 14  1  0
 14 15  2  0
 15 16  1  0
 16 17  2  0
 17 18  1  0
 13  5  1  0
 18 14  1  0
 12 10  1  0
  3 19  1  0
  4 20  1  0
  4 21  1  0
  6 22  1  0
  7 23  1  0
 10 24  1  0
 11 25  1  0
 11 26  1  0
 12 27  1  0
 12 28  1  0
 13 29  1  0
 16 30  1  0
 17 31  1  0
 18 32  1  0
M  END
>  <Energy>  (484) 
21.71923494357689

>  <compound_id>  (484) 
23261

>  <target_id>  (484) 
1

>  <reference_id>  (484) 
114

>  <inspiration_ids>  (484) 
[82, 114]

>  <energy_score>  (484) 
-21.15877947920734

>  <distance_score>  (484) 
15.203448921045089

>  <path>  (484) 
/opt/xchem-fragalysis-2/maxwin/BulkDock/SCRATCH/511025/C23261-P114/C23261-P114.minimised.mol

>  <scratch_subdir>  (484) 
/opt/xchem-fragalysis-2/maxwin/BulkDock/SCRATCH/511025/C23261-P114

>  <fragmenstein_runtime>  (484) 
18.944564819335938

>  <fragmenstein_outcome>  (484) 
too moved

>  <fragmenstein_mode>  (484) 
expansion

>  <fragmenstein_error>  (484) 


$$$$
C23262-P82
     RDKit          3D

 35 37  0  0  0  0  0  0  0  0999 V2000
   -5.4382   -7.6764   22.3598 O   0  0  0  0  0  0  0  0  0  0  0  0
   -5.2296   -8.8272   22.0812 C   0  0  0  0  0  0  0  0  0  0  0  0
   -4.1016   -9.1766   21.0317 C   0  0  0  0  0  0  0  0  0  0  0  0
   -2.9305   -8.1928   20.8039 C   0  0  0  0  0  0  0  0  0  0  0  0
   -2.4893   -7.7409   19.6332 N   0  0  0  0  0  0  0  0  0  0  0  0
   -1.2612   -7.1551   19.8625 C   0  0  0  0  0  0  0  0  0  0  0  0
   -0.9488   -7.2141   21.1959 C   0  0  0  0  0  0  0  0  0  0  0  0
   -2.0172   -7.8491   21.7814 N   0  0  0  0  0  0  0  0  0  0  0  0
   -5.9125  -10.0656   22.5253 N   0  0  0  0  0  0  0  0  0  0  0  0
   -6.9950  -10.2768   23.5220 C   0  0  0  0  0  0  0  0  0  0  0  0
   -8.0301  -11.4129   23.2001 C   0  0  0  0  0  0  0  0  0  0  0  0
   -8.3105  -12.5831   24.3105 C   0  0  0  0  0  0  0  0  0  0  0  0
   -9.1385  -13.7014   24.0550 C   0  0  0  0  0  0  0  0  0  0  0  0
   -9.3989  -14.6842   25.0297 C   0  0  0  0  0  0  0  0  0  0  0  0
   -8.8534  -14.5461   26.2909 C   0  0  0  0  0  0  0  0  0  0  0  0
   -8.0697  -13.4296   26.5033 C   0  0  0  0  0  0  0  0  0  0  0  0
   -7.7860  -12.4801   25.5579 N   0  0  0  0  0  0  0  0  0  0  0  0
   -9.3040  -10.8843   22.5239 C   0  0  0  0  0  0  0  0  0  0  0  0
   -8.3327  -11.6849   21.7237 C   0  0  0  0  0  0  0  0  0  0  0  0
   -3.6386  -10.1293   21.2998 H   0  0  0  0  0  0  0  0  0  0  0  0
   -4.6108   -9.3190   20.0705 H   0  0  0  0  0  0  0  0  0  0  0  0
   -0.6767   -6.7416   19.0520 H   0  0  0  0  0  0  0  0  0  0  0  0
   -0.0899   -6.8900   21.7636 H   0  0  0  0  0  0  0  0  0  0  0  0
   -2.1277   -8.0685   22.7636 H   0  0  0  0  0  0  0  0  0  0  0  0
   -5.4153  -10.8735   22.1535 H   0  0  0  0  0  0  0  0  0  0  0  0
   -6.5037  -10.5172   24.4577 H   0  0  0  0  0  0  0  0  0  0  0  0
   -7.5046   -9.3177   23.6646 H   0  0  0  0  0  0  0  0  0  0  0  0
   -9.6123  -13.8127   23.0844 H   0  0  0  0  0  0  0  0  0  0  0  0
  -10.0363  -15.5306   24.7903 H   0  0  0  0  0  0  0  0  0  0  0  0
   -9.0343  -15.2654   27.0784 H   0  0  0  0  0  0  0  0  0  0  0  0
   -7.6185  -13.2392   27.4738 H   0  0  0  0  0  0  0  0  0  0  0  0
   -9.3786   -9.8224   22.3098 H   0  0  0  0  0  0  0  0  0  0  0  0
  -10.2593  -11.3290   22.7789 H   0  0  0  0  0  0  0  0  0  0  0  0
   -7.7642  -11.1543   20.9661 H   0  0  0  0  0  0  0  0  0  0  0  0
   -8.6652  -12.6565   21.3864 H   0  0  0  0  0  0  0  0  0  0  0  0
  1  2  2  0
  2  3  1  0
  3  4  1  0
  4  5  2  0
  5  6  1  0
  6  7  2  0
  7  8  1  0
  2  9  1  0
  9 10  1  0
 10 11  1  0
 11 12  1  0
 12 13  2  0
 13 14  1  0
 14 15  2  0
 15 16  1  0
 16 17  2  0
 11 18  1  0
 18 19  1  0
  8  4  1  0
 19 11  1  0
 17 12  1  0
  3 20  1  0
  3 21  1  0
  6 22  1  0
  7 23  1  0
  8 24  1  0
  9 25  1  0
 10 26  1  0
 10 27  1  0
 13 28  1  0
 14 29  1  0
 15 30  1  0
 16 31  1  0
 18 32  1  0
 18 33  1  0
 19 34  1  0
 19 35  1  0
M  END
>  <Energy>  (485) 
53.916655612290015

>  <compound_id>  (485) 
23262

>  <target_id>  (485) 
1

>  <reference_id>  (485) 
82

>  <inspiration_ids>  (485) 
[82, 114]

>  <energy_score>  (485) 
-2.7231543907914784

>  <distance_score>  (485) 
14.46017997310776

>  <path>  (485) 
/opt/xchem-fragalysis-2/maxwin/BulkDock/SCRATCH/511025/C23262-P82/C23262-P82.minimised.mol

>  <scratch_subdir>  (485) 
/opt/xchem-fragalysis-2/maxwin/BulkDock/SCRATCH/511025/C23262-P82

>  <fragmenstein_runtime>  (485) 
30.856719970703125

>  <fragmenstein_outcome>  (485) 
too moved

>  <fragmenstein_mode>  (485) 
expansion

>  <fragmenstein_error>  (485) 


$$$$
C23262-P114
     RDKit          3D

 35 37  0  0  0  0  0  0  0  0999 V2000
   -5.2150   -7.4975   22.1421 O   0  0  0  0  0  0  0  0  0  0  0  0
   -5.0052   -8.6564   21.9018 C   0  0  0  0  0  0  0  0  0  0  0  0
   -3.8238   -9.0509   20.9340 C   0  0  0  0  0  0  0  0  0  0  0  0
   -2.6784   -8.0436   20.6831 C   0  0  0  0  0  0  0  0  0  0  0  0
   -2.2872   -7.5529   19.5109 N   0  0  0  0  0  0  0  0  0  0  0  0
   -1.0621   -6.9511   19.7131 C   0  0  0  0  0  0  0  0  0  0  0  0
   -0.6988   -7.0428   21.0317 C   0  0  0  0  0  0  0  0  0  0  0  0
   -1.7347   -7.7123   21.6370 N   0  0  0  0  0  0  0  0  0  0  0  0
   -5.7180   -9.8769   22.3457 N   0  0  0  0  0  0  0  0  0  0  0  0
   -6.8433  -10.0538   23.2974 C   0  0  0  0  0  0  0  0  0  0  0  0
   -7.8740  -11.1845   22.9487 C   0  0  0  0  0  0  0  0  0  0  0  0
   -8.2491  -12.2981   24.0835 C   0  0  0  0  0  0  0  0  0  0  0  0
   -9.1635  -13.3525   23.8505 C   0  0  0  0  0  0  0  0  0  0  0  0
   -9.5157  -14.2776   24.8512 C   0  0  0  0  0  0  0  0  0  0  0  0
   -8.9736  -14.1421   26.1135 C   0  0  0  0  0  0  0  0  0  0  0  0
   -8.0875  -13.0980   26.2981 C   0  0  0  0  0  0  0  0  0  0  0  0
   -7.7149  -12.2093   25.3274 N   0  0  0  0  0  0  0  0  0  0  0  0
   -9.0765  -10.6630   22.1488 C   0  0  0  0  0  0  0  0  0  0  0  0
   -8.0722  -11.5330   21.4707 C   0  0  0  0  0  0  0  0  0  0  0  0
   -3.3510   -9.9649   21.3064 H   0  0  0  0  0  0  0  0  0  0  0  0
   -4.2812   -9.2868   19.9653 H   0  0  0  0  0  0  0  0  0  0  0  0
   -0.5169   -6.5016   18.8945 H   0  0  0  0  0  0  0  0  0  0  0  0
    0.1741   -6.7188   21.5773 H   0  0  0  0  0  0  0  0  0  0  0  0
   -1.7984   -7.9677   22.6131 H   0  0  0  0  0  0  0  0  0  0  0  0
   -5.2126  -10.6981   22.0163 H   0  0  0  0  0  0  0  0  0  0  0  0
   -6.3926  -10.2846   24.2567 H   0  0  0  0  0  0  0  0  0  0  0  0
   -7.3482   -9.0874   23.4013 H   0  0  0  0  0  0  0  0  0  0  0  0
   -9.6344  -13.4532   22.8771 H   0  0  0  0  0  0  0  0  0  0  0  0
  -10.2223  -15.0728   24.6326 H   0  0  0  0  0  0  0  0  0  0  0  0
   -9.2255  -14.8151   26.9225 H   0  0  0  0  0  0  0  0  0  0  0  0
   -7.6173  -12.9246   27.2638 H   0  0  0  0  0  0  0  0  0  0  0  0
  -10.0625  -11.0642   22.3522 H   0  0  0  0  0  0  0  0  0  0  0  0
   -9.1008   -9.6134   21.8707 H   0  0  0  0  0  0  0  0  0  0  0  0
   -8.4011  -12.5179   21.1701 H   0  0  0  0  0  0  0  0  0  0  0  0
   -7.4338  -11.0623   20.7298 H   0  0  0  0  0  0  0  0  0  0  0  0
  1  2  2  0
  2  3  1  0
  3  4  1  0
  4  5  2  0
  5  6  1  0
  6  7  2  0
  7  8  1  0
  2  9  1  0
  9 10  1  0
 10 11  1  0
 11 12  1  0
 12 13  2  0
 13 14  1  0
 14 15  2  0
 15 16  1  0
 16 17  2  0
 11 18  1  0
 18 19  1  0
  8  4  1  0
 19 11  1  0
 17 12  1  0
  3 20  1  0
  3 21  1  0
  6 22  1  0
  7 23  1  0
  8 24  1  0
  9 25  1  0
 10 26  1  0
 10 27  1  0
 13 28  1  0
 14 29  1  0
 15 30  1  0
 16 31  1  0
 18 32  1  0
 18 33  1  0
 19 34  1  0
 19 35  1  0
M  END
>  <Energy>  (486) 
53.25063771826651

>  <compound_id>  (486) 
23262

>  <target_id>  (486) 
1

>  <reference_id>  (486) 
114

>  <inspiration_ids>  (486) 
[82, 114]

>  <energy_score>  (486) 
-3.3891722848197787

>  <distance_score>  (486) 
14.513644962386504

>  <path>  (486) 
/opt/xchem-fragalysis-2/maxwin/BulkDock/SCRATCH/511025/C23262-P114/C23262-P114.minimised.mol

>  <scratch_subdir>  (486) 
/opt/xchem-fragalysis-2/maxwin/BulkDock/SCRATCH/511025/C23262-P114

>  <fragmenstein_runtime>  (486) 
29.23380136489868

>  <fragmenstein_outcome>  (486) 
too moved

>  <fragmenstein_mode>  (486) 
expansion

>  <fragmenstein_error>  (486) 


$$$$
C6498-P82
     RDKit          3D

 38 40  0  0  0  0  0  0  0  0999 V2000
    1.8879  -11.5918   25.0714 O   0  0  0  0  0  0  0  0  0  0  0  0
    1.9891  -12.4670   24.3718 C   0  0  0  0  0  0  0  0  0  0  0  0
    3.3276  -12.1512   23.0677 N   0  0  0  0  0  0  0  0  0  0  0  0
    4.6908  -10.6025   22.8085 C   0  0  0  0  0  0  0  0  0  0  0  0
    6.3555  -10.9860   23.7098 C   0  0  0  0  0  0  0  0  0  0  0  0
    7.6724  -11.1992   22.8896 C   0  0  0  0  0  0  0  0  0  0  0  0
    8.0151  -11.8139   21.6932 C   0  0  0  0  0  0  0  0  0  0  0  0
    9.2602  -11.4127   21.2628 N   0  0  0  0  0  0  0  0  0  0  0  0
    9.7371  -10.6533   22.2204 C   0  0  0  0  0  0  0  0  0  0  0  0
    8.8440  -10.5377   23.2509 N   0  0  0  0  0  0  0  0  0  0  0  0
    4.2690   -8.5353   23.0517 C   0  0  0  0  0  0  0  0  0  0  0  0
    4.9926   -7.5888   23.4287 O   0  0  0  0  0  0  0  0  0  0  0  0
    2.8810   -8.4245   22.7850 O   0  0  0  0  0  0  0  0  0  0  0  0
    0.8296  -13.8760   25.0162 C   0  0  0  0  0  0  0  0  0  0  0  0
   -0.5930  -14.3248   24.4275 C   0  0  0  0  0  0  0  0  0  0  0  0
   -1.8978  -14.5556   25.4487 C   0  0  0  0  0  0  0  0  0  0  0  0
   -1.9983  -14.9909   26.9023 N   0  0  0  0  0  0  0  0  0  0  0  0
   -0.7630  -14.8175   27.6613 C   0  0  0  0  0  0  0  0  0  0  0  0
   -1.1198  -15.8499   29.0098 C   0  0  0  0  0  0  0  0  0  0  0  0
   -0.4231  -17.1719   29.2950 C   0  0  0  0  0  0  0  0  0  0  0  0
   -1.8109  -17.1825   28.7402 C   0  0  0  0  0  0  0  0  0  0  0  0
    0.7264  -13.9745   26.7100 C   0  0  0  0  0  0  0  0  0  0  0  0
    3.3157  -12.9280   22.4175 H   0  0  0  0  0  0  0  0  0  0  0  0
    5.0619  -10.9040   21.8303 H   0  0  0  0  0  0  0  0  0  0  0  0
    6.6011  -10.1801   24.4197 H   0  0  0  0  0  0  0  0  0  0  0  0
    6.2618  -11.8204   24.4036 H   0  0  0  0  0  0  0  0  0  0  0  0
    7.4008  -12.4407   21.0596 H   0  0  0  0  0  0  0  0  0  0  0  0
   10.7030  -10.1652   22.2297 H   0  0  0  0  0  0  0  0  0  0  0  0
    8.9603   -9.9501   24.0662 H   0  0  0  0  0  0  0  0  0  0  0  0
    2.3003   -9.1537   22.4390 H   0  0  0  0  0  0  0  0  0  0  0  0
   -0.6043  -14.2261   23.3571 H   0  0  0  0  0  0  0  0  0  0  0  0
   -2.4077  -13.5594   25.5273 H   0  0  0  0  0  0  0  0  0  0  0  0
   -1.5709  -15.3112   29.8426 H   0  0  0  0  0  0  0  0  0  0  0  0
   -0.2923  -17.4468   30.3363 H   0  0  0  0  0  0  0  0  0  0  0  0
    0.3806  -17.5156   28.6573 H   0  0  0  0  0  0  0  0  0  0  0  0
   -1.9522  -17.5101   27.7188 H   0  0  0  0  0  0  0  0  0  0  0  0
   -2.6295  -17.4537   29.3973 H   0  0  0  0  0  0  0  0  0  0  0  0
    1.8378  -13.9056   26.8051 H   0  0  0  0  0  0  0  0  0  0  0  0
  1  2  2  0
  2  3  1  0
  3  4  1  0
  4  5  1  0
  5  6  1  0
  6  7  2  0
  7  8  1  0
  8  9  2  0
  9 10  1  0
  4 11  1  0
 11 12  2  0
 11 13  1  0
  2 14  1  0
 14 15  2  0
 15 16  1  0
 16 17  2  0
 17 18  1  0
 18 19  1  0
 19 20  1  0
 20 21  1  0
 18 22  2  0
 10  6  1  0
 22 14  1  0
 21 19  1  0
  3 23  1  0
  4 24  1  0
  5 25  1  0
  5 26  1  0
  7 27  1  0
  9 28  1  0
 10 29  1  0
 13 30  1  0
 15 31  1  0
 16 32  1  0
 19 33  1  0
 20 34  1  0
 20 35  1  0
 21 36  1  0
 21 37  1  0
 22 38  1  0
M  END
>  <Energy>  (487) 
697.396549424417

>  <compound_id>  (487) 
6498

>  <target_id>  (487) 
1

>  <reference_id>  (487) 
82

>  <inspiration_ids>  (487) 
[82, 114]

>  <energy_score>  (487) 
648.5082912642984

>  <distance_score>  (487) 
15.05605682788514

>  <path>  (487) 
/opt/xchem-fragalysis-2/maxwin/BulkDock/SCRATCH/511025/C6498-P82/C6498-P82.minimised.mol

>  <scratch_subdir>  (487) 
/opt/xchem-fragalysis-2/maxwin/BulkDock/SCRATCH/511025/C6498-P82

>  <fragmenstein_runtime>  (487) 
25.52181839942932

>  <fragmenstein_outcome>  (487) 
too moved

>  <fragmenstein_mode>  (487) 
expansion

>  <fragmenstein_error>  (487) 


$$$$
C6498-P114
     RDKit          3D

 38 40  0  0  0  0  0  0  0  0999 V2000
   -1.8703  -12.7266   33.1929 O   0  0  0  0  0  0  0  0  0  0  0  0
   -2.4429  -12.8454   32.1469 C   0  0  0  0  0  0  0  0  0  0  0  0
   -2.4618  -11.9921   30.9789 N   0  0  0  0  0  0  0  0  0  0  0  0
   -1.8337  -10.5936   30.7248 C   0  0  0  0  0  0  0  0  0  0  0  0
   -0.5215   -9.8883   29.6616 C   0  0  0  0  0  0  0  0  0  0  0  0
   -0.5166   -8.3819   29.1175 C   0  0  0  0  0  0  0  0  0  0  0  0
   -0.5870   -7.1014   29.6645 C   0  0  0  0  0  0  0  0  0  0  0  0
   -0.5338   -6.1054   28.6985 N   0  0  0  0  0  0  0  0  0  0  0  0
   -0.3598   -6.7340   27.5693 C   0  0  0  0  0  0  0  0  0  0  0  0
   -0.2022   -8.0703   27.7901 N   0  0  0  0  0  0  0  0  0  0  0  0
   -2.3654   -9.6068   31.8124 C   0  0  0  0  0  0  0  0  0  0  0  0
   -2.0580   -8.4317   31.9198 O   0  0  0  0  0  0  0  0  0  0  0  0
   -3.3150  -10.1011   32.6312 O   0  0  0  0  0  0  0  0  0  0  0  0
   -3.3738  -14.0578   32.0152 C   0  0  0  0  0  0  0  0  0  0  0  0
   -4.7011  -13.9332   31.5996 C   0  0  0  0  0  0  0  0  0  0  0  0
   -5.5003  -15.0731   31.5528 C   0  0  0  0  0  0  0  0  0  0  0  0
   -5.0738  -16.3138   31.8697 N   0  0  0  0  0  0  0  0  0  0  0  0
   -3.7932  -16.4481   32.3002 C   0  0  0  0  0  0  0  0  0  0  0  0
   -3.2812  -17.8268   32.6478 C   0  0  0  0  0  0  0  0  0  0  0  0
   -4.2426  -18.9348   33.0092 C   0  0  0  0  0  0  0  0  0  0  0  0
   -3.3763  -18.3246   34.0708 C   0  0  0  0  0  0  0  0  0  0  0  0
   -2.9383  -15.3347   32.3953 C   0  0  0  0  0  0  0  0  0  0  0  0
   -2.9921  -12.4495   30.2425 H   0  0  0  0  0  0  0  0  0  0  0  0
   -2.3927  -10.7167   29.8433 H   0  0  0  0  0  0  0  0  0  0  0  0
   -0.6142  -10.4133   28.7188 H   0  0  0  0  0  0  0  0  0  0  0  0
    0.4758  -10.1790   29.9843 H   0  0  0  0  0  0  0  0  0  0  0  0
   -0.6767   -6.8360   30.7114 H   0  0  0  0  0  0  0  0  0  0  0  0
   -0.3080   -6.3008   26.5816 H   0  0  0  0  0  0  0  0  0  0  0  0
   -0.0753   -8.7306   27.0506 H   0  0  0  0  0  0  0  0  0  0  0  0
   -3.4571   -9.4023   33.3034 H   0  0  0  0  0  0  0  0  0  0  0  0
   -5.1185  -12.9662   31.3388 H   0  0  0  0  0  0  0  0  0  0  0  0
   -6.5393  -15.0080   31.2408 H   0  0  0  0  0  0  0  0  0  0  0  0
   -2.4054  -18.1421   32.0850 H   0  0  0  0  0  0  0  0  0  0  0  0
   -4.0074  -19.9326   32.6587 H   0  0  0  0  0  0  0  0  0  0  0  0
   -5.3049  -18.7173   33.0354 H   0  0  0  0  0  0  0  0  0  0  0  0
   -3.8584  -17.6952   34.8109 H   0  0  0  0  0  0  0  0  0  0  0  0
   -2.5550  -18.9157   34.4583 H   0  0  0  0  0  0  0  0  0  0  0  0
   -1.9214  -15.4656   32.7562 H   0  0  0  0  0  0  0  0  0  0  0  0
  1  2  2  0
  2  3  1  0
  3  4  1  0
  4  5  1  0
  5  6  1  0
  6  7  2  0
  7  8  1  0
  8  9  2  0
  9 10  1  0
  4 11  1  0
 11 12  2  0
 11 13  1  0
  2 14  1  0
 14 15  2  0
 15 16  1  0
 16 17  2  0
 17 18  1  0
 18 19  1  0
 19 20  1  0
 20 21  1  0
 18 22  2  0
 10  6  1  0
 22 14  1  0
 21 19  1  0
  3 23  1  0
  4 24  1  0
  5 25  1  0
  5 26  1  0
  7 27  1  0
  9 28  1  0
 10 29  1  0
 13 30  1  0
 15 31  1  0
 16 32  1  0
 19 33  1  0
 20 34  1  0
 20 35  1  0
 21 36  1  0
 21 37  1  0
 22 38  1  0
M  END
>  <Energy>  (488) 
115.60590200765162

>  <compound_id>  (488) 
6498

>  <target_id>  (488) 
1

>  <reference_id>  (488) 
114

>  <inspiration_ids>  (488) 
[82, 114]

>  <energy_score>  (488) 
66.71764384752066

>  <distance_score>  (488) 
15.932662328161188

>  <path>  (488) 
/opt/xchem-fragalysis-2/maxwin/BulkDock/SCRATCH/511025/C6498-P114/C6498-P114.minimised.mol

>  <scratch_subdir>  (488) 
/opt/xchem-fragalysis-2/maxwin/BulkDock/SCRATCH/511025/C6498-P114

>  <fragmenstein_runtime>  (488) 
25.73158884048462

>  <fragmenstein_outcome>  (488) 
too moved

>  <fragmenstein_mode>  (488) 
expansion

>  <fragmenstein_error>  (488) 


$$$$
C23264-P82
     RDKit          3D

 33 35  0  0  0  0  0  0  0  0999 V2000
   -8.0800   -9.8523   19.1158 O   0  0  0  0  0  0  0  0  0  0  0  0
   -7.2660  -10.8955   19.6993 S   0  0  0  0  0  0  0  0  0  0  0  0
   -7.1856  -11.0672   21.1366 O   0  0  0  0  0  0  0  0  0  0  0  0
   -7.9196  -12.3936   19.1035 N   0  0  0  0  0  0  0  0  0  0  0  0
   -9.3283  -12.7781   19.6130 C   0  0  0  0  0  0  0  0  0  0  0  0
   -9.8788  -14.1852   19.1365 C   0  0  0  0  0  0  0  0  0  0  0  0
  -10.3445  -15.3011   20.2119 C   0  0  0  0  0  0  0  0  0  0  0  0
  -11.4977  -15.1565   21.0020 C   0  0  0  0  0  0  0  0  0  0  0  0
  -11.9103  -16.1728   21.8898 C   0  0  0  0  0  0  0  0  0  0  0  0
  -11.1904  -17.3553   21.9687 C   0  0  0  0  0  0  0  0  0  0  0  0
  -10.0874  -17.4677   21.1451 C   0  0  0  0  0  0  0  0  0  0  0  0
   -9.6598  -16.4815   20.2949 N   0  0  0  0  0  0  0  0  0  0  0  0
   -9.4421  -14.7193   17.7681 C   0  0  0  0  0  0  0  0  0  0  0  0
  -10.7994  -14.1229   17.9059 C   0  0  0  0  0  0  0  0  0  0  0  0
   -5.5093  -10.4980   19.1882 C   0  0  0  0  0  0  0  0  0  0  0  0
   -5.0780  -10.0109   18.0234 N   0  0  0  0  0  0  0  0  0  0  0  0
   -3.7456   -9.6807   18.2051 C   0  0  0  0  0  0  0  0  0  0  0  0
   -3.3335  -10.0033   19.4729 C   0  0  0  0  0  0  0  0  0  0  0  0
   -4.4550  -10.5046   20.0908 N   0  0  0  0  0  0  0  0  0  0  0  0
   -7.9365  -12.3205   18.0824 H   0  0  0  0  0  0  0  0  0  0  0  0
  -10.0149  -12.0089   19.2376 H   0  0  0  0  0  0  0  0  0  0  0  0
   -9.3681  -12.7218   20.7006 H   0  0  0  0  0  0  0  0  0  0  0  0
  -12.0864  -14.2467   20.9252 H   0  0  0  0  0  0  0  0  0  0  0  0
  -12.8031  -16.0356   22.4941 H   0  0  0  0  0  0  0  0  0  0  0  0
  -11.4771  -18.1632   22.6316 H   0  0  0  0  0  0  0  0  0  0  0  0
   -9.4708  -18.3638   21.1509 H   0  0  0  0  0  0  0  0  0  0  0  0
   -9.3654  -15.7962   17.6455 H   0  0  0  0  0  0  0  0  0  0  0  0
   -8.7156  -14.1795   17.1759 H   0  0  0  0  0  0  0  0  0  0  0  0
  -10.9797  -13.1678   17.4255 H   0  0  0  0  0  0  0  0  0  0  0  0
  -11.6470  -14.7989   17.8496 H   0  0  0  0  0  0  0  0  0  0  0  0
   -3.1665   -9.2256   17.4138 H   0  0  0  0  0  0  0  0  0  0  0  0
   -2.3827   -9.9087   19.9809 H   0  0  0  0  0  0  0  0  0  0  0  0
   -4.5418  -10.8093   21.0573 H   0  0  0  0  0  0  0  0  0  0  0  0
  1  2  2  0
  2  3  2  0
  2  4  1  0
  4  5  1  0
  5  6  1  0
  6  7  1  0
  7  8  2  0
  8  9  1  0
  9 10  2  0
 10 11  1  0
 11 12  2  0
  6 13  1  0
 13 14  1  0
  2 15  1  0
 15 16  2  0
 16 17  1  0
 17 18  2  0
 18 19  1  0
 14  6  1  0
 19 15  1  0
 12  7  1  0
  4 20  1  0
  5 21  1  0
  5 22  1  0
  8 23  1  0
  9 24  1  0
 10 25  1  0
 11 26  1  0
 13 27  1  0
 13 28  1  0
 14 29  1  0
 14 30  1  0
 17 31  1  0
 18 32  1  0
 19 33  1  0
M  END
>  <Energy>  (489) 
20.311230483519203

>  <compound_id>  (489) 
23264

>  <target_id>  (489) 
1

>  <reference_id>  (489) 
82

>  <inspiration_ids>  (489) 
[82, 114]

>  <energy_score>  (489) 
-16.541338813053244

>  <distance_score>  (489) 
16.11155712803198

>  <path>  (489) 
/opt/xchem-fragalysis-2/maxwin/BulkDock/SCRATCH/511025/C23264-P82/C23264-P82.minimised.mol

>  <scratch_subdir>  (489) 
/opt/xchem-fragalysis-2/maxwin/BulkDock/SCRATCH/511025/C23264-P82

>  <fragmenstein_runtime>  (489) 
26.62659764289856

>  <fragmenstein_outcome>  (489) 
too moved

>  <fragmenstein_mode>  (489) 
expansion

>  <fragmenstein_error>  (489) 


$$$$
C23264-P114
     RDKit          3D

 33 35  0  0  0  0  0  0  0  0999 V2000
    1.8103  -18.7741   17.5775 O   0  0  0  0  0  0  0  0  0  0  0  0
    2.3825  -18.2744   16.3518 S   0  0  0  0  0  0  0  0  0  0  0  0
    3.6179  -18.5867   15.6336 O   0  0  0  0  0  0  0  0  0  0  0  0
    1.3160  -19.2358   15.2166 N   0  0  0  0  0  0  0  0  0  0  0  0
    1.6390  -20.8103   15.4959 C   0  0  0  0  0  0  0  0  0  0  0  0
    0.5272  -21.8441   15.0397 C   0  0  0  0  0  0  0  0  0  0  0  0
   -0.0164  -22.9889   16.1000 C   0  0  0  0  0  0  0  0  0  0  0  0
   -1.2719  -23.6303   15.9610 C   0  0  0  0  0  0  0  0  0  0  0  0
   -1.7511  -24.5668   16.9060 C   0  0  0  0  0  0  0  0  0  0  0  0
   -0.9652  -24.8958   17.9945 C   0  0  0  0  0  0  0  0  0  0  0  0
    0.2745  -24.2891   18.0625 C   0  0  0  0  0  0  0  0  0  0  0  0
    0.7514  -23.3677   17.1594 N   0  0  0  0  0  0  0  0  0  0  0  0
    0.7187  -22.3953   13.6198 C   0  0  0  0  0  0  0  0  0  0  0  0
   -0.3686  -21.4074   13.8773 C   0  0  0  0  0  0  0  0  0  0  0  0
    2.6328  -15.9532   16.7439 C   0  0  0  0  0  0  0  0  0  0  0  0
    3.9416  -15.2632   17.3632 N   0  0  0  0  0  0  0  0  0  0  0  0
    3.5465  -14.1656   18.2891 C   0  0  0  0  0  0  0  0  0  0  0  0
    2.2325  -14.3128   18.1007 C   0  0  0  0  0  0  0  0  0  0  0  0
    2.5090  -15.5896   18.1129 N   0  0  0  0  0  0  0  0  0  0  0  0
    0.3378  -19.1724   15.4704 H   0  0  0  0  0  0  0  0  0  0  0  0
    2.5636  -21.0200   14.9446 H   0  0  0  0  0  0  0  0  0  0  0  0
    1.8523  -20.9577   16.5549 H   0  0  0  0  0  0  0  0  0  0  0  0
   -1.9131  -23.3881   15.1199 H   0  0  0  0  0  0  0  0  0  0  0  0
   -2.7303  -25.0182   16.7733 H   0  0  0  0  0  0  0  0  0  0  0  0
   -1.2883  -25.6109   18.7404 H   0  0  0  0  0  0  0  0  0  0  0  0
    0.9614  -24.5109   18.8761 H   0  0  0  0  0  0  0  0  0  0  0  0
    1.5774  -22.0637   13.0455 H   0  0  0  0  0  0  0  0  0  0  0  0
    0.4407  -23.4238   13.4178 H   0  0  0  0  0  0  0  0  0  0  0  0
   -1.3952  -21.7432   13.8200 H   0  0  0  0  0  0  0  0  0  0  0  0
   -0.2412  -20.4158   13.4536 H   0  0  0  0  0  0  0  0  0  0  0  0
    4.1643  -13.4315   18.7734 H   0  0  0  0  0  0  0  0  0  0  0  0
    1.2614  -13.8943   17.9582 H   0  0  0  0  0  0  0  0  0  0  0  0
    3.3122  -15.8989   18.6465 H   0  0  0  0  0  0  0  0  0  0  0  0
  1  2  2  0
  2  3  2  0
  2  4  1  0
  4  5  1  0
  5  6  1  0
  6  7  1  0
  7  8  2  0
  8  9  1  0
  9 10  2  0
 10 11  1  0
 11 12  2  0
  6 13  1  0
 13 14  1  0
  2 15  1  0
 15 16  2  0
 16 17  1  0
 17 18  2  0
 18 19  1  0
 14  6  1  0
 19 15  1  0
 12  7  1  0
  4 20  1  0
  5 21  1  0
  5 22  1  0
  8 23  1  0
  9 24  1  0
 10 25  1  0
 11 26  1  0
 13 27  1  0
 13 28  1  0
 14 29  1  0
 14 30  1  0
 17 31  1  0
 18 32  1  0
 19 33  1  0
M  END
>  <Energy>  (490) 
279.28458905388868

>  <compound_id>  (490) 
23264

>  <target_id>  (490) 
1

>  <reference_id>  (490) 
114

>  <inspiration_ids>  (490) 
[82, 114]

>  <energy_score>  (490) 
242.43201975731574

>  <distance_score>  (490) 
17.525665982178943

>  <path>  (490) 
/opt/xchem-fragalysis-2/maxwin/BulkDock/SCRATCH/511025/C23264-P114/C23264-P114.minimised.mol

>  <scratch_subdir>  (490) 
/opt/xchem-fragalysis-2/maxwin/BulkDock/SCRATCH/511025/C23264-P114

>  <fragmenstein_runtime>  (490) 
16.05501365661621

>  <fragmenstein_outcome>  (490) 
too moved

>  <fragmenstein_mode>  (490) 
expansion

>  <fragmenstein_error>  (490) 


$$$$
C23265-P82
     RDKit          3D

 36 38  0  0  0  0  0  0  0  0999 V2000
   -5.4685  -17.9894   29.8289 C   0  0  0  0  0  0  0  0  0  0  0  0
   -4.7180  -16.8558   29.6494 C   0  0  0  0  0  0  0  0  0  0  0  0
   -3.7298  -16.4849   28.4861 C   0  0  0  0  0  0  0  0  0  0  0  0
   -3.4632  -17.1703   27.3549 C   0  0  0  0  0  0  0  0  0  0  0  0
   -2.4408  -16.9327   25.5760 C   0  0  0  0  0  0  0  0  0  0  0  0
   -1.5940  -15.5705   24.1116 N   0  0  0  0  0  0  0  0  0  0  0  0
   -0.6083  -15.2732   22.2092 C   0  0  0  0  0  0  0  0  0  0  0  0
    0.9259  -15.6379   20.6657 C   0  0  0  0  0  0  0  0  0  0  0  0
    2.2034  -14.9963   19.0265 C   0  0  0  0  0  0  0  0  0  0  0  0
    3.8818  -14.3453   18.5277 C   0  0  0  0  0  0  0  0  0  0  0  0
    4.1969  -13.0516   18.4432 N   0  0  0  0  0  0  0  0  0  0  0  0
    5.5167  -12.9042   18.0579 C   0  0  0  0  0  0  0  0  0  0  0  0
    6.0597  -14.1309   17.8347 C   0  0  0  0  0  0  0  0  0  0  0  0
    5.0428  -15.0199   18.1114 N   0  0  0  0  0  0  0  0  0  0  0  0
   -1.0798  -17.9286   26.5334 C   0  0  0  0  0  0  0  0  0  0  0  0
   -2.1444  -18.5249   25.8893 C   0  0  0  0  0  0  0  0  0  0  0  0
   -4.5216  -18.3802   27.7704 N   0  0  0  0  0  0  0  0  0  0  0  0
   -5.3644  -18.7845   28.7745 C   0  0  0  0  0  0  0  0  0  0  0  0
   -6.0992  -18.0970   30.6829 H   0  0  0  0  0  0  0  0  0  0  0  0
   -5.1288  -16.0585   30.2298 H   0  0  0  0  0  0  0  0  0  0  0  0
   -3.1398  -15.5530   28.5559 H   0  0  0  0  0  0  0  0  0  0  0  0
   -2.5374  -15.4123   23.7225 H   0  0  0  0  0  0  0  0  0  0  0  0
   -0.3279  -16.3260   22.0094 H   0  0  0  0  0  0  0  0  0  0  0  0
   -0.1275  -14.3705   22.5951 H   0  0  0  0  0  0  0  0  0  0  0  0
    1.7738  -14.9748   20.8362 H   0  0  0  0  0  0  0  0  0  0  0  0
    0.5513  -16.5826   20.2630 H   0  0  0  0  0  0  0  0  0  0  0  0
    2.1614  -15.7001   18.1721 H   0  0  0  0  0  0  0  0  0  0  0  0
    1.7409  -14.2266   18.3342 H   0  0  0  0  0  0  0  0  0  0  0  0
    5.9693  -11.9268   17.9641 H   0  0  0  0  0  0  0  0  0  0  0  0
    7.0462  -14.4629   17.5515 H   0  0  0  0  0  0  0  0  0  0  0  0
    5.2150  -15.9864   18.2976 H   0  0  0  0  0  0  0  0  0  0  0  0
   -1.0888  -17.7899   27.5720 H   0  0  0  0  0  0  0  0  0  0  0  0
   -0.1082  -18.2942   26.3116 H   0  0  0  0  0  0  0  0  0  0  0  0
   -2.5253  -19.1339   26.7796 H   0  0  0  0  0  0  0  0  0  0  0  0
   -2.5668  -19.4815   25.5209 H   0  0  0  0  0  0  0  0  0  0  0  0
   -5.8771  -19.7049   28.5762 H   0  0  0  0  0  0  0  0  0  0  0  0
  1  2  2  0
  2  3  1  0
  3  4  2  0
  4  5  1  0
  5  6  1  0
  6  7  1  0
  7  8  1  0
  8  9  1  0
  9 10  1  0
 10 11  2  0
 11 12  1  0
 12 13  2  0
 13 14  1  0
  5 15  1  0
 15 16  1  0
  4 17  1  0
 17 18  2  0
 18  1  1  0
 16  5  1  0
 14 10  1  0
  1 19  1  0
  2 20  1  0
  3 21  1  0
  6 22  1  0
  7 23  1  0
  7 24  1  0
  8 25  1  0
  8 26  1  0
  9 27  1  0
  9 28  1  0
 12 29  1  0
 13 30  1  0
 14 31  1  0
 15 32  1  0
 15 33  1  0
 16 34  1  0
 16 35  1  0
 18 36  1  0
M  END
>  <Energy>  (491) 
1139.4497877149026

>  <compound_id>  (491) 
23265

>  <target_id>  (491) 
1

>  <reference_id>  (491) 
82

>  <inspiration_ids>  (491) 
[82, 114]

>  <energy_score>  (491) 
1083.2767313310571

>  <distance_score>  (491) 
12.583335674167392

>  <path>  (491) 
/opt/xchem-fragalysis-2/maxwin/BulkDock/SCRATCH/511025/C23265-P82/C23265-P82.minimised.mol

>  <scratch_subdir>  (491) 
/opt/xchem-fragalysis-2/maxwin/BulkDock/SCRATCH/511025/C23265-P82

>  <fragmenstein_runtime>  (491) 
22.206384897232056

>  <fragmenstein_outcome>  (491) 
too moved

>  <fragmenstein_mode>  (491) 
expansion

>  <fragmenstein_error>  (491) 


$$$$
C23265-P114
     RDKit          3D

 36 38  0  0  0  0  0  0  0  0999 V2000
   -0.7733  -20.3714   27.8634 C   0  0  0  0  0  0  0  0  0  0  0  0
   -2.0071  -20.4202   27.1995 C   0  0  0  0  0  0  0  0  0  0  0  0
   -2.3627  -19.1882   26.2829 C   0  0  0  0  0  0  0  0  0  0  0  0
   -1.8282  -17.7263   26.0412 C   0  0  0  0  0  0  0  0  0  0  0  0
   -1.9720  -16.0192   24.8243 C   0  0  0  0  0  0  0  0  0  0  0  0
   -0.7539  -14.5801   24.3396 N   0  0  0  0  0  0  0  0  0  0  0  0
    0.8755  -14.1639   23.8910 C   0  0  0  0  0  0  0  0  0  0  0  0
    2.5094  -12.9570   23.8699 C   0  0  0  0  0  0  0  0  0  0  0  0
    3.7146  -12.0405   22.6291 C   0  0  0  0  0  0  0  0  0  0  0  0
    5.4033  -10.9878   22.8217 C   0  0  0  0  0  0  0  0  0  0  0  0
    6.2176  -11.0086   23.9377 N   0  0  0  0  0  0  0  0  0  0  0  0
    7.5829  -10.9142   23.6288 C   0  0  0  0  0  0  0  0  0  0  0  0
    7.7957  -10.9994   22.2852 C   0  0  0  0  0  0  0  0  0  0  0  0
    6.5513  -11.2188   21.7570 N   0  0  0  0  0  0  0  0  0  0  0  0
   -2.3723  -14.8216   25.7147 C   0  0  0  0  0  0  0  0  0  0  0  0
   -3.1858  -15.5239   24.5205 C   0  0  0  0  0  0  0  0  0  0  0  0
   -0.6721  -17.9569   26.8433 N   0  0  0  0  0  0  0  0  0  0  0  0
   -0.1341  -19.1244   27.6373 C   0  0  0  0  0  0  0  0  0  0  0  0
   -0.3544  -21.1736   28.4489 H   0  0  0  0  0  0  0  0  0  0  0  0
   -2.6175  -21.3161   27.1406 H   0  0  0  0  0  0  0  0  0  0  0  0
   -3.0315  -19.7019   25.5643 H   0  0  0  0  0  0  0  0  0  0  0  0
   -0.8829  -13.7352   24.9024 H   0  0  0  0  0  0  0  0  0  0  0  0
    1.5112  -14.8871   23.4295 H   0  0  0  0  0  0  0  0  0  0  0  0
    0.1488  -14.0051   23.0151 H   0  0  0  0  0  0  0  0  0  0  0  0
    2.0674  -12.1177   24.3580 H   0  0  0  0  0  0  0  0  0  0  0  0
    3.2456  -13.5425   24.4107 H   0  0  0  0  0  0  0  0  0  0  0  0
    3.7854  -12.5518   21.6669 H   0  0  0  0  0  0  0  0  0  0  0  0
    3.2680  -11.0890   22.7124 H   0  0  0  0  0  0  0  0  0  0  0  0
    8.3192  -10.8220   24.4161 H   0  0  0  0  0  0  0  0  0  0  0  0
    8.6910  -11.0254   21.6820 H   0  0  0  0  0  0  0  0  0  0  0  0
    6.3362  -11.6621   20.8735 H   0  0  0  0  0  0  0  0  0  0  0  0
   -2.3586  -13.7409   25.6419 H   0  0  0  0  0  0  0  0  0  0  0  0
   -2.1754  -15.0173   26.7837 H   0  0  0  0  0  0  0  0  0  0  0  0
   -3.2819  -15.1452   23.5466 H   0  0  0  0  0  0  0  0  0  0  0  0
   -4.1367  -15.7633   24.8292 H   0  0  0  0  0  0  0  0  0  0  0  0
    0.8427  -18.9035   28.0662 H   0  0  0  0  0  0  0  0  0  0  0  0
  1  2  2  0
  2  3  1  0
  3  4  2  0
  4  5  1  0
  5  6  1  0
  6  7  1  0
  7  8  1  0
  8  9  1  0
  9 10  1  0
 10 11  2  0
 11 12  1  0
 12 13  2  0
 13 14  1  0
  5 15  1  0
 15 16  1  0
  4 17  1  0
 17 18  2  0
 18  1  1  0
 16  5  1  0
 14 10  1  0
  1 19  1  0
  2 20  1  0
  3 21  1  0
  6 22  1  0
  7 23  1  0
  7 24  1  0
  8 25  1  0
  8 26  1  0
  9 27  1  0
  9 28  1  0
 12 29  1  0
 13 30  1  0
 14 31  1  0
 15 32  1  0
 15 33  1  0
 16 34  1  0
 16 35  1  0
 18 36  1  0
M  END
>  <Energy>  (492) 
689.07699897391615

>  <compound_id>  (492) 
23265

>  <target_id>  (492) 
1

>  <reference_id>  (492) 
114

>  <inspiration_ids>  (492) 
[82, 114]

>  <energy_score>  (492) 
632.9039425900421

>  <distance_score>  (492) 
12.660285065269674

>  <path>  (492) 
/opt/xchem-fragalysis-2/maxwin/BulkDock/SCRATCH/511025/C23265-P114/C23265-P114.minimised.mol

>  <scratch_subdir>  (492) 
/opt/xchem-fragalysis-2/maxwin/BulkDock/SCRATCH/511025/C23265-P114

>  <fragmenstein_runtime>  (492) 
15.007270336151123

>  <fragmenstein_outcome>  (492) 
too moved

>  <fragmenstein_mode>  (492) 
expansion

>  <fragmenstein_error>  (492) 


$$$$
C52673-P82
     RDKit          3D

 41 43  0  0  0  0  0  0  0  0999 V2000
    4.2910  -20.5191   24.5004 C   0  0  0  0  0  0  0  0  0  0  0  0
    3.6841  -19.6912   25.4896 O   0  0  0  0  0  0  0  0  0  0  0  0
    2.3550  -19.4707   25.2841 C   0  0  0  0  0  0  0  0  0  0  0  0
    1.6872  -19.9753   24.3849 O   0  0  0  0  0  0  0  0  0  0  0  0
    1.7813  -18.5363   26.3530 C   0  0  0  0  0  0  0  0  0  0  0  0
    1.6639  -17.1077   25.7800 C   0  0  0  0  0  0  0  0  0  0  0  0
    2.9947  -16.4216   25.5121 C   0  0  0  0  0  0  0  0  0  0  0  0
    3.5995  -15.3942   26.2055 C   0  0  0  0  0  0  0  0  0  0  0  0
    4.8159  -15.2013   25.6134 N   0  0  0  0  0  0  0  0  0  0  0  0
    4.9312  -16.1419   24.6356 C   0  0  0  0  0  0  0  0  0  0  0  0
    3.8169  -16.8179   24.4779 N   0  0  0  0  0  0  0  0  0  0  0  0
    0.5064  -19.1805   26.7731 N   0  0  0  0  0  0  0  0  0  0  0  0
    0.2263  -20.1207   27.8308 C   0  0  0  0  0  0  0  0  0  0  0  0
    0.9329  -20.5604   28.6902 O   0  0  0  0  0  0  0  0  0  0  0  0
   -1.1654  -20.7497   27.8102 C   0  0  0  0  0  0  0  0  0  0  0  0
   -1.7609  -21.1261   26.5950 C   0  0  0  0  0  0  0  0  0  0  0  0
   -2.9397  -21.8737   26.5798 C   0  0  0  0  0  0  0  0  0  0  0  0
   -3.4859  -22.2562   27.7829 C   0  0  0  0  0  0  0  0  0  0  0  0
   -2.9677  -21.9086   28.9761 N   0  0  0  0  0  0  0  0  0  0  0  0
   -1.8155  -21.1570   29.0054 C   0  0  0  0  0  0  0  0  0  0  0  0
   -1.2945  -20.7787   30.3865 C   0  0  0  0  0  0  0  0  0  0  0  0
   -1.9016  -21.3602   31.6460 C   0  0  0  0  0  0  0  0  0  0  0  0
   -0.5446  -21.8112   31.1988 C   0  0  0  0  0  0  0  0  0  0  0  0
    4.1894  -20.0705   23.5070 H   0  0  0  0  0  0  0  0  0  0  0  0
    3.8542  -21.5224   24.5200 H   0  0  0  0  0  0  0  0  0  0  0  0
    5.3562  -20.6010   24.7337 H   0  0  0  0  0  0  0  0  0  0  0  0
    2.4371  -18.5573   27.2313 H   0  0  0  0  0  0  0  0  0  0  0  0
    1.0911  -16.4914   26.4847 H   0  0  0  0  0  0  0  0  0  0  0  0
    1.0840  -17.1240   24.8494 H   0  0  0  0  0  0  0  0  0  0  0  0
    3.2825  -14.8267   27.0683 H   0  0  0  0  0  0  0  0  0  0  0  0
    5.5216  -14.5357   25.8977 H   0  0  0  0  0  0  0  0  0  0  0  0
    5.8439  -16.3122   24.0873 H   0  0  0  0  0  0  0  0  0  0  0  0
   -0.3086  -19.1008   26.1775 H   0  0  0  0  0  0  0  0  0  0  0  0
   -1.2774  -20.9095   25.6448 H   0  0  0  0  0  0  0  0  0  0  0  0
   -3.3922  -22.1838   25.6434 H   0  0  0  0  0  0  0  0  0  0  0  0
   -4.3897  -22.8514   27.8137 H   0  0  0  0  0  0  0  0  0  0  0  0
   -0.9495  -19.7510   30.4810 H   0  0  0  0  0  0  0  0  0  0  0  0
   -2.7224  -22.0626   31.5583 H   0  0  0  0  0  0  0  0  0  0  0  0
   -1.9647  -20.7189   32.5170 H   0  0  0  0  0  0  0  0  0  0  0  0
   -0.4473  -22.8116   30.7923 H   0  0  0  0  0  0  0  0  0  0  0  0
    0.3244  -21.4725   31.7504 H   0  0  0  0  0  0  0  0  0  0  0  0
  1  2  1  0
  2  3  1  0
  3  4  2  0
  3  5  1  0
  5  6  1  0
  6  7  1  0
  7  8  2  0
  8  9  1  0
  9 10  1  0
 10 11  2  0
  5 12  1  0
 12 13  1  0
 13 14  2  0
 13 15  1  0
 15 16  2  0
 16 17  1  0
 17 18  2  0
 18 19  1  0
 19 20  2  0
 20 21  1  0
 21 22  1  0
 22 23  1  0
 11  7  1  0
 20 15  1  0
 23 21  1  0
  1 24  1  0
  1 25  1  0
  1 26  1  0
  5 27  1  0
  6 28  1  0
  6 29  1  0
  8 30  1  0
  9 31  1  0
 10 32  1  0
 12 33  1  0
 16 34  1  0
 17 35  1  0
 18 36  1  0
 21 37  1  0
 22 38  1  0
 22 39  1  0
 23 40  1  0
 23 41  1  0
M  END
>  <Energy>  (493) 
66.484037357400894

>  <compound_id>  (493) 
52673

>  <target_id>  (493) 
1

>  <reference_id>  (493) 
82

>  <inspiration_ids>  (493) 
[82, 114]

>  <energy_score>  (493) 
-36.479323531157206

>  <distance_score>  (493) 
14.991622842144613

>  <path>  (493) 
/opt/xchem-fragalysis-2/maxwin/BulkDock/SCRATCH/511025/C52673-P82/C52673-P82.minimised.mol

>  <scratch_subdir>  (493) 
/opt/xchem-fragalysis-2/maxwin/BulkDock/SCRATCH/511025/C52673-P82

>  <fragmenstein_runtime>  (493) 
59.79298663139343

>  <fragmenstein_outcome>  (493) 
too moved

>  <fragmenstein_mode>  (493) 
expansion

>  <fragmenstein_error>  (493) 


$$$$
C52673-P114
     RDKit          3D

 41 43  0  0  0  0  0  0  0  0999 V2000
    9.0653  -14.7926   29.6493 C   0  0  0  0  0  0  0  0  0  0  0  0
    8.1945  -14.4607   28.5674 O   0  0  0  0  0  0  0  0  0  0  0  0
    7.3872  -15.4765   28.1628 C   0  0  0  0  0  0  0  0  0  0  0  0
    7.4286  -16.6121   28.6315 O   0  0  0  0  0  0  0  0  0  0  0  0
    6.4496  -15.0774   27.0166 C   0  0  0  0  0  0  0  0  0  0  0  0
    6.3937  -13.5528   26.7431 C   0  0  0  0  0  0  0  0  0  0  0  0
    7.4729  -12.8086   25.9214 C   0  0  0  0  0  0  0  0  0  0  0  0
    8.8254  -13.0090   25.7177 C   0  0  0  0  0  0  0  0  0  0  0  0
    9.2546  -11.9909   24.8928 N   0  0  0  0  0  0  0  0  0  0  0  0
    8.1825  -11.1978   24.6246 C   0  0  0  0  0  0  0  0  0  0  0  0
    7.1081  -11.6621   25.2185 N   0  0  0  0  0  0  0  0  0  0  0  0
    5.1171  -15.7697   27.2983 N   0  0  0  0  0  0  0  0  0  0  0  0
    4.0072  -15.3868   28.1473 C   0  0  0  0  0  0  0  0  0  0  0  0
    3.8196  -14.3873   28.7841 O   0  0  0  0  0  0  0  0  0  0  0  0
    2.8449  -16.4354   28.3243 C   0  0  0  0  0  0  0  0  0  0  0  0
    2.0920  -16.3563   29.5292 C   0  0  0  0  0  0  0  0  0  0  0  0
    0.9934  -17.1877   29.8027 C   0  0  0  0  0  0  0  0  0  0  0  0
    0.6428  -18.1157   28.8545 C   0  0  0  0  0  0  0  0  0  0  0  0
    1.3066  -18.2360   27.6866 N   0  0  0  0  0  0  0  0  0  0  0  0
    2.3823  -17.4007   27.4034 C   0  0  0  0  0  0  0  0  0  0  0  0
    2.9767  -17.5607   26.0099 C   0  0  0  0  0  0  0  0  0  0  0  0
    4.0546  -18.5958   25.7593 C   0  0  0  0  0  0  0  0  0  0  0  0
    2.6862  -18.8058   25.1934 C   0  0  0  0  0  0  0  0  0  0  0  0
    8.4886  -15.1023   30.5265 H   0  0  0  0  0  0  0  0  0  0  0  0
    9.7667  -15.5768   29.3479 H   0  0  0  0  0  0  0  0  0  0  0  0
    9.6374  -13.8979   29.9098 H   0  0  0  0  0  0  0  0  0  0  0  0
    6.8369  -15.5745   26.1190 H   0  0  0  0  0  0  0  0  0  0  0  0
    6.2408  -12.9994   27.6775 H   0  0  0  0  0  0  0  0  0  0  0  0
    5.4945  -13.4390   26.1503 H   0  0  0  0  0  0  0  0  0  0  0  0
    9.5112  -13.7604   26.0811 H   0  0  0  0  0  0  0  0  0  0  0  0
   10.1978  -11.8472   24.5607 H   0  0  0  0  0  0  0  0  0  0  0  0
    8.2365  -10.3092   24.0115 H   0  0  0  0  0  0  0  0  0  0  0  0
    4.9799  -16.7188   26.9856 H   0  0  0  0  0  0  0  0  0  0  0  0
    2.3712  -15.6128   30.2763 H   0  0  0  0  0  0  0  0  0  0  0  0
    0.4431  -17.0963   30.7318 H   0  0  0  0  0  0  0  0  0  0  0  0
   -0.1918  -18.7943   28.9953 H   0  0  0  0  0  0  0  0  0  0  0  0
    3.0286  -16.6392   25.4334 H   0  0  0  0  0  0  0  0  0  0  0  0
    4.3576  -19.2432   26.5757 H   0  0  0  0  0  0  0  0  0  0  0  0
    4.8512  -18.3503   25.0669 H   0  0  0  0  0  0  0  0  0  0  0  0
    2.5456  -18.6983   24.1252 H   0  0  0  0  0  0  0  0  0  0  0  0
    2.0713  -19.5875   25.6277 H   0  0  0  0  0  0  0  0  0  0  0  0
  1  2  1  0
  2  3  1  0
  3  4  2  0
  3  5  1  0
  5  6  1  0
  6  7  1  0
  7  8  2  0
  8  9  1  0
  9 10  1  0
 10 11  2  0
  5 12  1  0
 12 13  1  0
 13 14  2  0
 13 15  1  0
 15 16  2  0
 16 17  1  0
 17 18  2  0
 18 19  1  0
 19 20  2  0
 20 21  1  0
 21 22  1  0
 22 23  1  0
 11  7  1  0
 20 15  1  0
 23 21  1  0
  1 24  1  0
  1 25  1  0
  1 26  1  0
  5 27  1  0
  6 28  1  0
  6 29  1  0
  8 30  1  0
  9 31  1  0
 10 32  1  0
 12 33  1  0
 16 34  1  0
 17 35  1  0
 18 36  1  0
 21 37  1  0
 22 38  1  0
 22 39  1  0
 23 40  1  0
 23 41  1  0
M  END
>  <Energy>  (494) 
78.461245302738561

>  <compound_id>  (494) 
52673

>  <target_id>  (494) 
1

>  <reference_id>  (494) 
114

>  <inspiration_ids>  (494) 
[82, 114]

>  <energy_score>  (494) 
-24.502115585818274

>  <distance_score>  (494) 
16.36880015359288

>  <path>  (494) 
/opt/xchem-fragalysis-2/maxwin/BulkDock/SCRATCH/511025/C52673-P114/C52673-P114.minimised.mol

>  <scratch_subdir>  (494) 
/opt/xchem-fragalysis-2/maxwin/BulkDock/SCRATCH/511025/C52673-P114

>  <fragmenstein_runtime>  (494) 
56.7161123752594

>  <fragmenstein_outcome>  (494) 
too moved

>  <fragmenstein_mode>  (494) 
expansion

>  <fragmenstein_error>  (494) 


$$$$
C23267-P82
     RDKit          3D

 34 36  0  0  0  0  0  0  0  0999 V2000
   -7.4583  -11.0265   23.9900 O   0  0  0  0  0  0  0  0  0  0  0  0
   -6.3449  -11.2594   24.2845 C   0  0  0  0  0  0  0  0  0  0  0  0
   -5.0529  -10.5509   23.8541 N   0  0  0  0  0  0  0  0  0  0  0  0
   -4.8478   -9.3357   23.0416 C   0  0  0  0  0  0  0  0  0  0  0  0
   -3.5572   -9.2494   22.2328 C   0  0  0  0  0  0  0  0  0  0  0  0
   -2.3344   -9.0190   22.6825 N   0  0  0  0  0  0  0  0  0  0  0  0
   -1.4868   -9.0347   21.5912 C   0  0  0  0  0  0  0  0  0  0  0  0
   -2.2100   -9.2488   20.4477 C   0  0  0  0  0  0  0  0  0  0  0  0
   -3.5123   -9.3544   20.8550 N   0  0  0  0  0  0  0  0  0  0  0  0
   -5.7773  -12.3622   25.1637 N   0  0  0  0  0  0  0  0  0  0  0  0
   -6.4114  -13.4611   25.7911 C   0  0  0  0  0  0  0  0  0  0  0  0
   -7.7831  -13.6800   25.7343 C   0  0  0  0  0  0  0  0  0  0  0  0
   -8.3389  -14.8009   26.3702 C   0  0  0  0  0  0  0  0  0  0  0  0
   -7.5124  -15.6911   27.0429 C   0  0  0  0  0  0  0  0  0  0  0  0
   -6.1437  -15.4337   27.0746 C   0  0  0  0  0  0  0  0  0  0  0  0
   -5.2019  -16.3859   27.7743 C   0  0  0  0  0  0  0  0  0  0  0  0
   -5.3556  -16.6679   29.2523 C   0  0  0  0  0  0  0  0  0  0  0  0
   -4.1951  -15.8524   28.7672 C   0  0  0  0  0  0  0  0  0  0  0  0
   -5.6076  -14.3305   26.4555 N   0  0  0  0  0  0  0  0  0  0  0  0
   -4.2753  -10.9469   24.3508 H   0  0  0  0  0  0  0  0  0  0  0  0
   -5.7180   -9.2356   22.3840 H   0  0  0  0  0  0  0  0  0  0  0  0
   -4.8730   -8.4946   23.7430 H   0  0  0  0  0  0  0  0  0  0  0  0
   -0.4151   -8.9069   21.6926 H   0  0  0  0  0  0  0  0  0  0  0  0
   -1.9196   -9.3368   19.4112 H   0  0  0  0  0  0  0  0  0  0  0  0
   -4.3090   -9.5280   20.2571 H   0  0  0  0  0  0  0  0  0  0  0  0
   -4.7927  -12.2260   25.2740 H   0  0  0  0  0  0  0  0  0  0  0  0
   -8.4344  -12.9911   25.2054 H   0  0  0  0  0  0  0  0  0  0  0  0
   -9.4115  -14.9698   26.3289 H   0  0  0  0  0  0  0  0  0  0  0  0
   -7.9252  -16.5682   27.5295 H   0  0  0  0  0  0  0  0  0  0  0  0
   -4.8580  -17.2135   27.1582 H   0  0  0  0  0  0  0  0  0  0  0  0
   -5.1577  -17.6762   29.5975 H   0  0  0  0  0  0  0  0  0  0  0  0
   -6.1278  -16.1511   29.8109 H   0  0  0  0  0  0  0  0  0  0  0  0
   -4.1937  -14.7882   28.9766 H   0  0  0  0  0  0  0  0  0  0  0  0
   -3.2097  -16.3037   28.7746 H   0  0  0  0  0  0  0  0  0  0  0  0
  1  2  2  0
  2  3  1  0
  3  4  1  0
  4  5  1  0
  5  6  2  0
  6  7  1  0
  7  8  2  0
  8  9  1  0
  2 10  1  0
 10 11  1  0
 11 12  2  0
 12 13  1  0
 13 14  2  0
 14 15  1  0
 15 16  1  0
 16 17  1  0
 17 18  1  0
 15 19  2  0
  9  5  1  0
 19 11  1  0
 18 16  1  0
  3 20  1  0
  4 21  1  0
  4 22  1  0
  7 23  1  0
  8 24  1  0
  9 25  1  0
 10 26  1  0
 12 27  1  0
 13 28  1  0
 14 29  1  0
 16 30  1  0
 17 31  1  0
 17 32  1  0
 18 33  1  0
 18 34  1  0
M  END
>  <Energy>  (495) 
-56.527349924570942

>  <compound_id>  (495) 
23267

>  <target_id>  (495) 
1

>  <reference_id>  (495) 
82

>  <inspiration_ids>  (495) 
[82, 114]

>  <energy_score>  (495) 
-18.724044654682757

>  <distance_score>  (495) 
15.045760363483573

>  <path>  (495) 
/opt/xchem-fragalysis-2/maxwin/BulkDock/SCRATCH/511025/C23267-P82/C23267-P82.minimised.mol

>  <scratch_subdir>  (495) 
/opt/xchem-fragalysis-2/maxwin/BulkDock/SCRATCH/511025/C23267-P82

>  <fragmenstein_runtime>  (495) 
39.374671936035156

>  <fragmenstein_outcome>  (495) 
too moved

>  <fragmenstein_mode>  (495) 
expansion

>  <fragmenstein_error>  (495) 


$$$$
C23267-P114
     RDKit          3D

 34 36  0  0  0  0  0  0  0  0999 V2000
    2.9920  -15.0451   18.0419 O   0  0  0  0  0  0  0  0  0  0  0  0
    2.8815  -14.6244   19.1726 C   0  0  0  0  0  0  0  0  0  0  0  0
    3.8869  -13.3372   20.0936 N   0  0  0  0  0  0  0  0  0  0  0  0
    5.1513  -12.5916   19.6893 C   0  0  0  0  0  0  0  0  0  0  0  0
    6.5733  -12.1138   20.4516 C   0  0  0  0  0  0  0  0  0  0  0  0
    7.3375  -12.6277   21.4021 N   0  0  0  0  0  0  0  0  0  0  0  0
    8.5191  -11.9190   21.4772 C   0  0  0  0  0  0  0  0  0  0  0  0
    8.5612  -10.9722   20.4967 C   0  0  0  0  0  0  0  0  0  0  0  0
    7.3251  -11.0642   19.9137 N   0  0  0  0  0  0  0  0  0  0  0  0
    1.8190  -15.1384   20.4808 N   0  0  0  0  0  0  0  0  0  0  0  0
    0.4143  -16.4438   20.5176 C   0  0  0  0  0  0  0  0  0  0  0  0
   -1.0506  -16.3850   20.2150 C   0  0  0  0  0  0  0  0  0  0  0  0
   -2.1375  -17.2030   20.6970 C   0  0  0  0  0  0  0  0  0  0  0  0
   -1.9047  -18.1929   21.6088 C   0  0  0  0  0  0  0  0  0  0  0  0
   -0.5992  -18.3213   21.9845 C   0  0  0  0  0  0  0  0  0  0  0  0
   -0.1763  -19.3492   23.0073 C   0  0  0  0  0  0  0  0  0  0  0  0
    1.0152  -20.2382   22.7325 C   0  0  0  0  0  0  0  0  0  0  0  0
   -0.3641  -20.8243   22.7327 C   0  0  0  0  0  0  0  0  0  0  0  0
    0.3798  -17.4751   21.4697 N   0  0  0  0  0  0  0  0  0  0  0  0
    3.5862  -13.2751   21.0536 H   0  0  0  0  0  0  0  0  0  0  0  0
    4.8727  -11.9187   20.4883 H   0  0  0  0  0  0  0  0  0  0  0  0
    5.1518  -12.0800   18.7657 H   0  0  0  0  0  0  0  0  0  0  0  0
    9.2806  -12.1803   22.2002 H   0  0  0  0  0  0  0  0  0  0  0  0
    9.3196  -10.2786   20.1645 H   0  0  0  0  0  0  0  0  0  0  0  0
    7.0591  -10.6241   19.0376 H   0  0  0  0  0  0  0  0  0  0  0  0
    1.9223  -14.5188   21.2565 H   0  0  0  0  0  0  0  0  0  0  0  0
   -1.4755  -15.6081   19.5669 H   0  0  0  0  0  0  0  0  0  0  0  0
   -3.1450  -17.0062   20.3405 H   0  0  0  0  0  0  0  0  0  0  0  0
   -2.6887  -18.8242   22.0005 H   0  0  0  0  0  0  0  0  0  0  0  0
   -0.2893  -19.0280   24.0396 H   0  0  0  0  0  0  0  0  0  0  0  0
    1.5253  -20.1283   21.7818 H   0  0  0  0  0  0  0  0  0  0  0  0
    1.6732  -20.4642   23.5625 H   0  0  0  0  0  0  0  0  0  0  0  0
   -0.6453  -21.4612   23.5628 H   0  0  0  0  0  0  0  0  0  0  0  0
   -0.7749  -21.1315   21.7774 H   0  0  0  0  0  0  0  0  0  0  0  0
  1  2  2  0
  2  3  1  0
  3  4  1  0
  4  5  1  0
  5  6  2  0
  6  7  1  0
  7  8  2  0
  8  9  1  0
  2 10  1  0
 10 11  1  0
 11 12  2  0
 12 13  1  0
 13 14  2  0
 14 15  1  0
 15 16  1  0
 16 17  1  0
 17 18  1  0
 15 19  2  0
  9  5  1  0
 19 11  1  0
 18 16  1  0
  3 20  1  0
  4 21  1  0
  4 22  1  0
  7 23  1  0
  8 24  1  0
  9 25  1  0
 10 26  1  0
 12 27  1  0
 13 28  1  0
 14 29  1  0
 16 30  1  0
 17 31  1  0
 17 32  1  0
 18 33  1  0
 18 34  1  0
M  END
>  <Energy>  (496) 
230.87161109836734

>  <compound_id>  (496) 
23267

>  <target_id>  (496) 
1

>  <reference_id>  (496) 
114

>  <inspiration_ids>  (496) 
[82, 114]

>  <energy_score>  (496) 
268.67491636824684

>  <distance_score>  (496) 
16.331536061945847

>  <path>  (496) 
/opt/xchem-fragalysis-2/maxwin/BulkDock/SCRATCH/511025/C23267-P114/C23267-P114.minimised.mol

>  <scratch_subdir>  (496) 
/opt/xchem-fragalysis-2/maxwin/BulkDock/SCRATCH/511025/C23267-P114

>  <fragmenstein_runtime>  (496) 
26.613340377807617

>  <fragmenstein_outcome>  (496) 
too moved

>  <fragmenstein_mode>  (496) 
expansion

>  <fragmenstein_error>  (496) 


$$$$
C23268-P82
     RDKit          3D

 40 43  0  0  0  0  0  0  0  0999 V2000
   -1.2283  -23.0644   24.1785 C   0  0  0  0  0  0  0  0  0  0  0  0
   -2.3266  -23.2873   24.9841 C   0  0  0  0  0  0  0  0  0  0  0  0
   -3.0254  -22.1944   25.4810 C   0  0  0  0  0  0  0  0  0  0  0  0
   -4.3575  -22.4733   26.1045 C   0  0  0  0  0  0  0  0  0  0  0  0
   -5.5001  -21.5199   26.2383 C   0  0  0  0  0  0  0  0  0  0  0  0
   -5.4851  -22.4619   25.0823 C   0  0  0  0  0  0  0  0  0  0  0  0
   -2.6054  -20.9185   25.2555 N   0  0  0  0  0  0  0  0  0  0  0  0
   -1.5564  -20.6957   24.4156 C   0  0  0  0  0  0  0  0  0  0  0  0
   -1.1859  -19.3736   24.0764 N   0  0  0  0  0  0  0  0  0  0  0  0
   -1.9243  -17.9615   25.3060 C   0  0  0  0  0  0  0  0  0  0  0  0
   -2.1269  -16.0254   24.5807 C   0  0  0  0  0  0  0  0  0  0  0  0
   -1.1942  -15.2637   22.9569 C   0  0  0  0  0  0  0  0  0  0  0  0
   -0.4192  -16.8529   21.7043 C   0  0  0  0  0  0  0  0  0  0  0  0
   -0.9142  -16.8857   20.0413 C   0  0  0  0  0  0  0  0  0  0  0  0
   -1.3829  -15.8989   19.3004 N   0  0  0  0  0  0  0  0  0  0  0  0
   -0.9667  -16.1190   18.0065 C   0  0  0  0  0  0  0  0  0  0  0  0
   -0.3275  -17.3225   17.9239 C   0  0  0  0  0  0  0  0  0  0  0  0
   -0.4401  -17.8601   19.1824 N   0  0  0  0  0  0  0  0  0  0  0  0
   -0.7172  -18.8255   22.2442 C   0  0  0  0  0  0  0  0  0  0  0  0
   -0.8611  -21.7577   23.8692 C   0  0  0  0  0  0  0  0  0  0  0  0
   -0.6728  -23.8978   23.7591 H   0  0  0  0  0  0  0  0  0  0  0  0
   -2.6720  -24.2984   25.1685 H   0  0  0  0  0  0  0  0  0  0  0  0
   -4.3396  -23.2310   26.8760 H   0  0  0  0  0  0  0  0  0  0  0  0
   -6.2679  -21.7240   26.9697 H   0  0  0  0  0  0  0  0  0  0  0  0
   -5.3077  -20.4766   26.0734 H   0  0  0  0  0  0  0  0  0  0  0  0
   -6.1897  -23.2777   25.0611 H   0  0  0  0  0  0  0  0  0  0  0  0
   -5.3002  -22.0357   24.1002 H   0  0  0  0  0  0  0  0  0  0  0  0
   -1.1320  -18.0430   26.0761 H   0  0  0  0  0  0  0  0  0  0  0  0
   -2.7350  -18.4521   25.8364 H   0  0  0  0  0  0  0  0  0  0  0  0
   -3.1458  -15.8069   24.2795 H   0  0  0  0  0  0  0  0  0  0  0  0
   -2.1434  -15.2326   25.3500 H   0  0  0  0  0  0  0  0  0  0  0  0
   -0.7762  -14.6602   23.8593 H   0  0  0  0  0  0  0  0  0  0  0  0
   -0.4948  -14.5065   22.5435 H   0  0  0  0  0  0  0  0  0  0  0  0
    0.4682  -16.5004   21.2317 H   0  0  0  0  0  0  0  0  0  0  0  0
   -1.1613  -15.4015   17.2205 H   0  0  0  0  0  0  0  0  0  0  0  0
    0.1315  -17.8580   17.1061 H   0  0  0  0  0  0  0  0  0  0  0  0
   -0.0673  -18.7540   19.4634 H   0  0  0  0  0  0  0  0  0  0  0  0
    0.1070  -19.4722   21.9308 H   0  0  0  0  0  0  0  0  0  0  0  0
   -1.5813  -19.1775   21.6586 H   0  0  0  0  0  0  0  0  0  0  0  0
   -0.0084  -21.5730   23.2247 H   0  0  0  0  0  0  0  0  0  0  0  0
  1  2  2  0
  2  3  1  0
  3  4  1  0
  4  5  1  0
  5  6  1  0
  3  7  2  0
  7  8  1  0
  8  9  1  0
  9 10  1  0
 10 11  1  0
 11 12  1  0
 12 13  1  0
 13 14  1  0
 14 15  2  0
 15 16  1  0
 16 17  2  0
 17 18  1  0
 13 19  1  0
  8 20  2  0
 20  1  1  0
  6  4  1  0
 19  9  1  0
 18 14  1  0
  1 21  1  0
  2 22  1  0
  4 23  1  0
  5 24  1  0
  5 25  1  0
  6 26  1  0
  6 27  1  0
 10 28  1  0
 10 29  1  0
 11 30  1  0
 11 31  1  0
 12 32  1  0
 12 33  1  0
 13 34  1  0
 16 35  1  0
 17 36  1  0
 18 37  1  0
 19 38  1  0
 19 39  1  0
 20 40  1  0
M  END
>  <Energy>  (497) 
561.12381375185339

>  <compound_id>  (497) 
23268

>  <target_id>  (497) 
1

>  <reference_id>  (497) 
82

>  <inspiration_ids>  (497) 
[82, 114]

>  <energy_score>  (497) 
525.2834945531299

>  <distance_score>  (497) 
15.896031034043952

>  <path>  (497) 
/opt/xchem-fragalysis-2/maxwin/BulkDock/SCRATCH/511025/C23268-P82/C23268-P82.minimised.mol

>  <scratch_subdir>  (497) 
/opt/xchem-fragalysis-2/maxwin/BulkDock/SCRATCH/511025/C23268-P82

>  <fragmenstein_runtime>  (497) 
19.298324584960938

>  <fragmenstein_outcome>  (497) 
too moved

>  <fragmenstein_mode>  (497) 
expansion

>  <fragmenstein_error>  (497) 


$$$$
C23268-P114
     RDKit          3D

 40 43  0  0  0  0  0  0  0  0999 V2000
   -2.6132  -16.4154   27.7499 C   0  0  0  0  0  0  0  0  0  0  0  0
   -2.6818  -17.7155   27.3451 C   0  0  0  0  0  0  0  0  0  0  0  0
   -2.2147  -17.8625   26.1084 C   0  0  0  0  0  0  0  0  0  0  0  0
   -1.5328  -19.3002   25.9318 C   0  0  0  0  0  0  0  0  0  0  0  0
   -2.2641  -20.5554   25.4924 C   0  0  0  0  0  0  0  0  0  0  0  0
   -1.7796  -20.4688   26.8941 C   0  0  0  0  0  0  0  0  0  0  0  0
   -2.3722  -16.5795   25.0242 N   0  0  0  0  0  0  0  0  0  0  0  0
   -2.1394  -15.1661   25.1166 C   0  0  0  0  0  0  0  0  0  0  0  0
   -0.7518  -14.1410   24.2868 N   0  0  0  0  0  0  0  0  0  0  0  0
   -0.7897  -13.3046   25.5821 C   0  0  0  0  0  0  0  0  0  0  0  0
    1.1757  -12.7293   25.6812 C   0  0  0  0  0  0  0  0  0  0  0  0
    1.7615  -11.9569   23.8328 C   0  0  0  0  0  0  0  0  0  0  0  0
    0.9232  -10.9473   22.1723 C   0  0  0  0  0  0  0  0  0  0  0  0
    1.7854   -8.8433   21.7218 C   0  0  0  0  0  0  0  0  0  0  0  0
    3.5274   -8.1642   22.0051 N   0  0  0  0  0  0  0  0  0  0  0  0
    4.9525   -7.7720   20.3067 C   0  0  0  0  0  0  0  0  0  0  0  0
    3.3327   -6.5291   19.6192 C   0  0  0  0  0  0  0  0  0  0  0  0
    1.6618   -7.0364   20.7143 N   0  0  0  0  0  0  0  0  0  0  0  0
   -0.2011  -12.7731   22.8020 C   0  0  0  0  0  0  0  0  0  0  0  0
   -2.1348  -15.2383   26.9239 C   0  0  0  0  0  0  0  0  0  0  0  0
   -3.1084  -16.1446   28.6835 H   0  0  0  0  0  0  0  0  0  0  0  0
   -3.1170  -18.5304   27.8951 H   0  0  0  0  0  0  0  0  0  0  0  0
   -0.4515  -19.2391   25.7864 H   0  0  0  0  0  0  0  0  0  0  0  0
   -3.3394  -20.5424   25.3541 H   0  0  0  0  0  0  0  0  0  0  0  0
   -1.7466  -21.2205   24.8089 H   0  0  0  0  0  0  0  0  0  0  0  0
   -2.5426  -20.4615   27.6603 H   0  0  0  0  0  0  0  0  0  0  0  0
   -0.9223  -21.0768   27.1696 H   0  0  0  0  0  0  0  0  0  0  0  0
   -1.6330  -12.5469   25.5672 H   0  0  0  0  0  0  0  0  0  0  0  0
   -1.3582  -13.9504   25.9960 H   0  0  0  0  0  0  0  0  0  0  0  0
    1.1866  -11.8928   26.3745 H   0  0  0  0  0  0  0  0  0  0  0  0
    1.6889  -13.5920   26.0554 H   0  0  0  0  0  0  0  0  0  0  0  0
    2.3835  -12.8652   23.6377 H   0  0  0  0  0  0  0  0  0  0  0  0
    2.6938  -11.5593   23.6983 H   0  0  0  0  0  0  0  0  0  0  0  0
   -0.0441  -10.3957   22.3389 H   0  0  0  0  0  0  0  0  0  0  0  0
    6.0595   -7.8442   20.6560 H   0  0  0  0  0  0  0  0  0  0  0  0
    2.8538   -6.6185   18.6255 H   0  0  0  0  0  0  0  0  0  0  0  0
    1.4206   -6.2692   21.3108 H   0  0  0  0  0  0  0  0  0  0  0  0
    0.1366  -13.9163   22.8948 H   0  0  0  0  0  0  0  0  0  0  0  0
   -0.2765  -13.5036   21.9915 H   0  0  0  0  0  0  0  0  0  0  0  0
   -1.6012  -14.6847   27.6704 H   0  0  0  0  0  0  0  0  0  0  0  0
  1  2  2  0
  2  3  1  0
  3  4  1  0
  4  5  1  0
  5  6  1  0
  3  7  2  0
  7  8  1  0
  8  9  1  0
  9 10  1  0
 10 11  1  0
 11 12  1  0
 12 13  1  0
 13 14  1  0
 14 15  2  0
 15 16  1  0
 16 17  2  0
 17 18  1  0
 13 19  1  0
  8 20  2  0
 20  1  1  0
  6  4  1  0
 19  9  1  0
 18 14  1  0
  1 21  1  0
  2 22  1  0
  4 23  1  0
  5 24  1  0
  5 25  1  0
  6 26  1  0
  6 27  1  0
 10 28  1  0
 10 29  1  0
 11 30  1  0
 11 31  1  0
 12 32  1  0
 12 33  1  0
 13 34  1  0
 16 35  1  0
 17 36  1  0
 18 37  1  0
 19 38  1  0
 19 39  1  0
 20 40  1  0
M  END
>  <Energy>  (498) 
2481.442082021259

>  <compound_id>  (498) 
23268

>  <target_id>  (498) 
1

>  <reference_id>  (498) 
114

>  <inspiration_ids>  (498) 
[82, 114]

>  <energy_score>  (498) 
2445.6017628225527

>  <distance_score>  (498) 
12.566909676444789

>  <path>  (498) 
/opt/xchem-fragalysis-2/maxwin/BulkDock/SCRATCH/511025/C23268-P114/C23268-P114.minimised.mol

>  <scratch_subdir>  (498) 
/opt/xchem-fragalysis-2/maxwin/BulkDock/SCRATCH/511025/C23268-P114

>  <fragmenstein_runtime>  (498) 
18.613431930541992

>  <fragmenstein_outcome>  (498) 
too moved

>  <fragmenstein_mode>  (498) 
expansion

>  <fragmenstein_error>  (498) 


$$$$
C23269-P82
     RDKit          3D

 36 38  0  0  0  0  0  0  0  0999 V2000
   -1.3961  -15.0523   23.1835 O   0  0  0  0  0  0  0  0  0  0  0  0
   -1.1284  -14.8189   24.2988 C   0  0  0  0  0  0  0  0  0  0  0  0
    0.6957  -14.0631   24.3769 C   0  0  0  0  0  0  0  0  0  0  0  0
    2.1821  -13.2273   23.9574 C   0  0  0  0  0  0  0  0  0  0  0  0
    3.2374  -12.5816   22.6325 C   0  0  0  0  0  0  0  0  0  0  0  0
    4.0739  -11.5204   22.3245 N   0  0  0  0  0  0  0  0  0  0  0  0
    5.0623  -11.8106   21.0253 C   0  0  0  0  0  0  0  0  0  0  0  0
    4.5664  -12.8619   20.4032 C   0  0  0  0  0  0  0  0  0  0  0  0
    3.5089  -13.2644   21.2674 N   0  0  0  0  0  0  0  0  0  0  0  0
   -2.3840  -15.2074   25.6073 N   0  0  0  0  0  0  0  0  0  0  0  0
   -4.0729  -16.0716   25.5224 C   0  0  0  0  0  0  0  0  0  0  0  0
   -4.9820  -17.5082   26.4429 C   0  0  0  0  0  0  0  0  0  0  0  0
   -4.2221  -18.5889   26.8522 C   0  0  0  0  0  0  0  0  0  0  0  0
   -4.8838  -19.8270   27.3757 C   0  0  0  0  0  0  0  0  0  0  0  0
   -6.2430  -20.2962   27.6132 N   0  0  0  0  0  0  0  0  0  0  0  0
   -7.2798  -19.4755   27.3966 C   0  0  0  0  0  0  0  0  0  0  0  0
   -9.0801  -20.2242   27.4851 C   0  0  0  0  0  0  0  0  0  0  0  0
  -10.3377  -20.8670   28.9734 C   0  0  0  0  0  0  0  0  0  0  0  0
  -10.1740  -21.7544   27.9558 C   0  0  0  0  0  0  0  0  0  0  0  0
   -6.6007  -18.0361   26.7222 C   0  0  0  0  0  0  0  0  0  0  0  0
    0.8113  -13.7492   25.4748 H   0  0  0  0  0  0  0  0  0  0  0  0
    2.1598  -12.3901   24.6064 H   0  0  0  0  0  0  0  0  0  0  0  0
    6.0018  -11.3093   20.8829 H   0  0  0  0  0  0  0  0  0  0  0  0
    4.8373  -13.3375   19.4704 H   0  0  0  0  0  0  0  0  0  0  0  0
    2.9703  -14.0977   21.1126 H   0  0  0  0  0  0  0  0  0  0  0  0
   -2.0386  -14.8718   26.4963 H   0  0  0  0  0  0  0  0  0  0  0  0
   -4.1637  -16.3460   24.4693 H   0  0  0  0  0  0  0  0  0  0  0  0
   -4.7327  -15.2315   25.7662 H   0  0  0  0  0  0  0  0  0  0  0  0
   -3.1391  -18.5834   26.7725 H   0  0  0  0  0  0  0  0  0  0  0  0
   -4.1863  -20.6302   27.6508 H   0  0  0  0  0  0  0  0  0  0  0  0
   -9.1652  -19.9979   26.4826 H   0  0  0  0  0  0  0  0  0  0  0  0
  -10.2634  -20.9911   30.0334 H   0  0  0  0  0  0  0  0  0  0  0  0
  -11.4539  -20.7871   29.0733 H   0  0  0  0  0  0  0  0  0  0  0  0
   -9.8551  -22.7794   28.0926 H   0  0  0  0  0  0  0  0  0  0  0  0
  -11.0956  -21.8840   27.3507 H   0  0  0  0  0  0  0  0  0  0  0  0
   -7.3620  -17.3333   26.3619 H   0  0  0  0  0  0  0  0  0  0  0  0
  1  2  2  0
  2  3  1  0
  3  4  2  3
  4  5  1  0
  5  6  2  0
  6  7  1  0
  7  8  2  0
  8  9  1  0
  2 10  1  0
 10 11  1  0
 11 12  1  0
 12 13  2  0
 13 14  1  0
 14 15  2  0
 15 16  1  0
 16 17  1  0
 17 18  1  0
 18 19  1  0
 16 20  2  0
  9  5  1  0
 20 12  1  0
 19 17  1  0
  3 21  1  0
  4 22  1  0
  7 23  1  0
  8 24  1  0
  9 25  1  0
 10 26  1  0
 11 27  1  0
 11 28  1  0
 13 29  1  0
 14 30  1  0
 17 31  1  0
 18 32  1  0
 18 33  1  0
 19 34  1  0
 19 35  1  0
 20 36  1  0
M  END
>  <Energy>  (499) 
812.2552979104654

>  <compound_id>  (499) 
23269

>  <target_id>  (499) 
1

>  <reference_id>  (499) 
82

>  <inspiration_ids>  (499) 
[82, 114]

>  <energy_score>  (499) 
807.4170839378855

>  <distance_score>  (499) 
12.277676825714302

>  <path>  (499) 
/opt/xchem-fragalysis-2/maxwin/BulkDock/SCRATCH/511025/C23269-P82/C23269-P82.minimised.mol

>  <scratch_subdir>  (499) 
/opt/xchem-fragalysis-2/maxwin/BulkDock/SCRATCH/511025/C23269-P82

>  <fragmenstein_runtime>  (499) 
18.581618070602417

>  <fragmenstein_outcome>  (499) 
too moved

>  <fragmenstein_mode>  (499) 
expansion

>  <fragmenstein_error>  (499) 


$$$$
C23269-P114
     RDKit          3D

 36 38  0  0  0  0  0  0  0  0999 V2000
    5.7488  -20.9587   23.0744 O   0  0  0  0  0  0  0  0  0  0  0  0
    4.8130  -20.5307   22.4584 C   0  0  0  0  0  0  0  0  0  0  0  0
    5.1802  -19.6955   21.2157 C   0  0  0  0  0  0  0  0  0  0  0  0
    6.3926  -19.0874   21.1017 C   0  0  0  0  0  0  0  0  0  0  0  0
    6.7418  -18.0957   20.0989 C   0  0  0  0  0  0  0  0  0  0  0  0
    6.0608  -17.5658   19.0982 N   0  0  0  0  0  0  0  0  0  0  0  0
    6.8059  -16.5075   18.6101 C   0  0  0  0  0  0  0  0  0  0  0  0
    7.9885  -16.3961   19.2945 C   0  0  0  0  0  0  0  0  0  0  0  0
    7.9531  -17.4196   20.2092 N   0  0  0  0  0  0  0  0  0  0  0  0
    3.3766  -20.6791   22.6842 N   0  0  0  0  0  0  0  0  0  0  0  0
    2.6323  -21.4795   23.6791 C   0  0  0  0  0  0  0  0  0  0  0  0
    1.1837  -21.1870   24.1215 C   0  0  0  0  0  0  0  0  0  0  0  0
    0.0730  -21.5386   23.3485 C   0  0  0  0  0  0  0  0  0  0  0  0
   -1.2076  -21.4513   23.9013 C   0  0  0  0  0  0  0  0  0  0  0  0
   -1.4722  -21.0258   25.1570 N   0  0  0  0  0  0  0  0  0  0  0  0
   -0.4170  -20.6987   25.9401 C   0  0  0  0  0  0  0  0  0  0  0  0
   -0.6767  -20.2280   27.3510 C   0  0  0  0  0  0  0  0  0  0  0  0
   -1.6951  -20.9414   28.2107 C   0  0  0  0  0  0  0  0  0  0  0  0
   -0.2351  -21.0744   28.5233 C   0  0  0  0  0  0  0  0  0  0  0  0
    0.9004  -20.7643   25.4400 C   0  0  0  0  0  0  0  0  0  0  0  0
    4.4225  -19.5840   20.4551 H   0  0  0  0  0  0  0  0  0  0  0  0
    7.1253  -19.2655   21.8870 H   0  0  0  0  0  0  0  0  0  0  0  0
    6.4329  -15.8975   17.7981 H   0  0  0  0  0  0  0  0  0  0  0  0
    8.8223  -15.7144   19.2141 H   0  0  0  0  0  0  0  0  0  0  0  0
    8.6702  -17.6258   20.8890 H   0  0  0  0  0  0  0  0  0  0  0  0
    2.8749  -20.2510   21.9165 H   0  0  0  0  0  0  0  0  0  0  0  0
    2.6507  -22.5074   23.2943 H   0  0  0  0  0  0  0  0  0  0  0  0
    3.2705  -21.5050   24.5715 H   0  0  0  0  0  0  0  0  0  0  0  0
    0.1953  -21.9242   22.3404 H   0  0  0  0  0  0  0  0  0  0  0  0
   -2.0806  -21.7384   23.3200 H   0  0  0  0  0  0  0  0  0  0  0  0
   -0.6232  -19.1503   27.4881 H   0  0  0  0  0  0  0  0  0  0  0  0
   -2.2090  -21.8016   27.7950 H   0  0  0  0  0  0  0  0  0  0  0  0
   -2.3086  -20.3394   28.8706 H   0  0  0  0  0  0  0  0  0  0  0  0
    0.1436  -20.5654   29.4022 H   0  0  0  0  0  0  0  0  0  0  0  0
    0.2306  -22.0350   28.3331 H   0  0  0  0  0  0  0  0  0  0  0  0
    1.7212  -20.5128   26.1100 H   0  0  0  0  0  0  0  0  0  0  0  0
  1  2  2  0
  2  3  1  0
  3  4  2  3
  4  5  1  0
  5  6  2  0
  6  7  1  0
  7  8  2  0
  8  9  1  0
  2 10  1  0
 10 11  1  0
 11 12  1  0
 12 13  2  0
 13 14  1  0
 14 15  2  0
 15 16  1  0
 16 17  1  0
 17 18  1  0
 18 19  1  0
 16 20  2  0
  9  5  1  0
 20 12  1  0
 19 17  1  0
  3 21  1  0
  4 22  1  0
  7 23  1  0
  8 24  1  0
  9 25  1  0
 10 26  1  0
 11 27  1  0
 11 28  1  0
 13 29  1  0
 14 30  1  0
 17 31  1  0
 18 32  1  0
 18 33  1  0
 19 34  1  0
 19 35  1  0
 20 36  1  0
M  END
>  <Energy>  (500) 
-0.24157580799761513

>  <compound_id>  (500) 
23269

>  <target_id>  (500) 
1

>  <reference_id>  (500) 
114

>  <inspiration_ids>  (500) 
[82, 114]

>  <energy_score>  (500) 
-5.079789780585315

>  <distance_score>  (500) 
15.55090677499469

>  <path>  (500) 
/opt/xchem-fragalysis-2/maxwin/BulkDock/SCRATCH/511025/C23269-P114/C23269-P114.minimised.mol

>  <scratch_subdir>  (500) 
/opt/xchem-fragalysis-2/maxwin/BulkDock/SCRATCH/511025/C23269-P114

>  <fragmenstein_runtime>  (500) 
32.559985876083374

>  <fragmenstein_outcome>  (500) 
too moved

>  <fragmenstein_mode>  (500) 
expansion

>  <fragmenstein_error>  (500) 


$$$$
C23270-P82
     RDKit          3D

 41 43  0  0  0  0  0  0  0  0999 V2000
   -6.8691  -14.8303   22.0150 O   0  0  0  0  0  0  0  0  0  0  0  0
   -6.7407  -15.8520   21.4062 C   0  0  0  0  0  0  0  0  0  0  0  0
   -6.1912  -16.1034   20.1001 N   0  0  0  0  0  0  0  0  0  0  0  0
   -5.5252  -15.2019   19.1389 C   0  0  0  0  0  0  0  0  0  0  0  0
   -6.2362  -13.8701   18.8169 C   0  0  0  0  0  0  0  0  0  0  0  0
   -5.4764  -12.5304   19.0596 C   0  0  0  0  0  0  0  0  0  0  0  0
   -4.1657  -12.2861   18.2761 C   0  0  0  0  0  0  0  0  0  0  0  0
   -3.6271  -10.8686   18.4225 C   0  0  0  0  0  0  0  0  0  0  0  0
   -4.3037   -9.7422   18.2836 N   0  0  0  0  0  0  0  0  0  0  0  0
   -3.4404   -8.7221   18.5831 C   0  0  0  0  0  0  0  0  0  0  0  0
   -2.1925   -9.2216   18.8220 C   0  0  0  0  0  0  0  0  0  0  0  0
   -2.3176  -10.5779   18.7133 N   0  0  0  0  0  0  0  0  0  0  0  0
   -7.1823  -17.0907   22.1709 C   0  0  0  0  0  0  0  0  0  0  0  0
   -6.4404  -18.2703   22.1969 C   0  0  0  0  0  0  0  0  0  0  0  0
   -6.8737  -19.3067   23.0143 C   0  0  0  0  0  0  0  0  0  0  0  0
   -7.9814  -19.2497   23.7798 N   0  0  0  0  0  0  0  0  0  0  0  0
   -8.7233  -18.1153   23.7554 C   0  0  0  0  0  0  0  0  0  0  0  0
   -9.9948  -18.0868   24.5634 C   0  0  0  0  0  0  0  0  0  0  0  0
  -11.1251  -19.0013   24.1398 C   0  0  0  0  0  0  0  0  0  0  0  0
  -11.2866  -17.5176   24.0219 C   0  0  0  0  0  0  0  0  0  0  0  0
   -8.3213  -17.0167   22.9893 C   0  0  0  0  0  0  0  0  0  0  0  0
   -6.3197  -17.0822   19.8704 H   0  0  0  0  0  0  0  0  0  0  0  0
   -4.5024  -15.0425   19.4838 H   0  0  0  0  0  0  0  0  0  0  0  0
   -5.4458  -15.7851   18.2139 H   0  0  0  0  0  0  0  0  0  0  0  0
   -7.1818  -13.8179   19.3703 H   0  0  0  0  0  0  0  0  0  0  0  0
   -6.5162  -13.8905   17.7553 H   0  0  0  0  0  0  0  0  0  0  0  0
   -6.1797  -11.7272   18.7991 H   0  0  0  0  0  0  0  0  0  0  0  0
   -5.2899  -12.4058   20.1283 H   0  0  0  0  0  0  0  0  0  0  0  0
   -3.4047  -13.0019   18.6077 H   0  0  0  0  0  0  0  0  0  0  0  0
   -4.3418  -12.4680   17.2094 H   0  0  0  0  0  0  0  0  0  0  0  0
   -3.7670   -7.6902   18.5904 H   0  0  0  0  0  0  0  0  0  0  0  0
   -1.2469   -8.7613   19.0541 H   0  0  0  0  0  0  0  0  0  0  0  0
   -1.5654  -11.2340   18.8600 H   0  0  0  0  0  0  0  0  0  0  0  0
   -5.5218  -18.3763   21.6315 H   0  0  0  0  0  0  0  0  0  0  0  0
   -6.3207  -20.2403   23.0772 H   0  0  0  0  0  0  0  0  0  0  0  0
   -9.8364  -17.9837   25.6313 H   0  0  0  0  0  0  0  0  0  0  0  0
  -11.6560  -19.5397   24.9147 H   0  0  0  0  0  0  0  0  0  0  0  0
  -11.0088  -19.5787   23.2281 H   0  0  0  0  0  0  0  0  0  0  0  0
  -11.3089  -17.0990   23.0222 H   0  0  0  0  0  0  0  0  0  0  0  0
  -11.9569  -17.0246   24.7165 H   0  0  0  0  0  0  0  0  0  0  0  0
   -8.9041  -16.0990   23.0141 H   0  0  0  0  0  0  0  0  0  0  0  0
  1  2  2  0
  2  3  1  0
  3  4  1  0
  4  5  1  0
  5  6  1  0
  6  7  1  0
  7  8  1  0
  8  9  2  0
  9 10  1  0
 10 11  2  0
 11 12  1  0
  2 13  1  0
 13 14  2  0
 14 15  1  0
 15 16  2  0
 16 17  1  0
 17 18  1  0
 18 19  1  0
 19 20  1  0
 17 21  2  0
 12  8  1  0
 21 13  1  0
 20 18  1  0
  3 22  1  0
  4 23  1  0
  4 24  1  0
  5 25  1  0
  5 26  1  0
  6 27  1  0
  6 28  1  0
  7 29  1  0
  7 30  1  0
 10 31  1  0
 11 32  1  0
 12 33  1  0
 14 34  1  0
 15 35  1  0
 18 36  1  0
 19 37  1  0
 19 38  1  0
 20 39  1  0
 20 40  1  0
 21 41  1  0
M  END
>  <Energy>  (501) 
17.555593487171254

>  <compound_id>  (501) 
23270

>  <target_id>  (501) 
1

>  <reference_id>  (501) 
82

>  <inspiration_ids>  (501) 
[82, 114]

>  <energy_score>  (501) 
-5.615149483176765

>  <distance_score>  (501) 
14.88709966312893

>  <path>  (501) 
/opt/xchem-fragalysis-2/maxwin/BulkDock/SCRATCH/511025/C23270-P82/C23270-P82.minimised.mol

>  <scratch_subdir>  (501) 
/opt/xchem-fragalysis-2/maxwin/BulkDock/SCRATCH/511025/C23270-P82

>  <fragmenstein_runtime>  (501) 
33.62177133560181

>  <fragmenstein_outcome>  (501) 
too moved

>  <fragmenstein_mode>  (501) 
expansion

>  <fragmenstein_error>  (501) 


$$$$
C23270-P114
     RDKit          3D

 41 43  0  0  0  0  0  0  0  0999 V2000
   -3.5660  -15.2472   23.4592 O   0  0  0  0  0  0  0  0  0  0  0  0
   -2.6372  -15.4116   24.2182 C   0  0  0  0  0  0  0  0  0  0  0  0
   -1.0856  -14.6894   24.1979 N   0  0  0  0  0  0  0  0  0  0  0  0
   -0.2478  -13.5243   22.9659 C   0  0  0  0  0  0  0  0  0  0  0  0
    0.4191  -11.5001   22.5080 C   0  0  0  0  0  0  0  0  0  0  0  0
    0.7376   -9.9321   21.1204 C   0  0  0  0  0  0  0  0  0  0  0  0
    1.5051   -8.9841   19.4069 C   0  0  0  0  0  0  0  0  0  0  0  0
    3.0823   -8.6708   18.2167 C   0  0  0  0  0  0  0  0  0  0  0  0
    4.5377   -8.9704   18.5004 N   0  0  0  0  0  0  0  0  0  0  0  0
    5.4572   -7.6984   18.7334 C   0  0  0  0  0  0  0  0  0  0  0  0
    5.1906   -6.6745   17.9949 C   0  0  0  0  0  0  0  0  0  0  0  0
    3.9661   -7.2043   17.8132 N   0  0  0  0  0  0  0  0  0  0  0  0
   -3.1387  -16.4708   25.5459 C   0  0  0  0  0  0  0  0  0  0  0  0
   -4.1526  -17.4164   25.2392 C   0  0  0  0  0  0  0  0  0  0  0  0
   -4.7544  -18.2053   26.2213 C   0  0  0  0  0  0  0  0  0  0  0  0
   -4.4965  -18.0828   27.5329 N   0  0  0  0  0  0  0  0  0  0  0  0
   -3.6716  -17.0741   27.8996 C   0  0  0  0  0  0  0  0  0  0  0  0
   -3.4770  -16.8014   29.3727 C   0  0  0  0  0  0  0  0  0  0  0  0
   -3.1561  -17.9378   30.3158 C   0  0  0  0  0  0  0  0  0  0  0  0
   -2.1021  -16.9226   29.9903 C   0  0  0  0  0  0  0  0  0  0  0  0
   -3.0408  -16.2455   26.9399 C   0  0  0  0  0  0  0  0  0  0  0  0
   -0.5805  -15.0495   24.8248 H   0  0  0  0  0  0  0  0  0  0  0  0
    0.5646  -13.9695   23.6737 H   0  0  0  0  0  0  0  0  0  0  0  0
   -0.1706  -14.2816   22.2290 H   0  0  0  0  0  0  0  0  0  0  0  0
    1.3612  -11.6453   23.0389 H   0  0  0  0  0  0  0  0  0  0  0  0
   -0.3397  -10.7581   22.6948 H   0  0  0  0  0  0  0  0  0  0  0  0
   -0.3508   -9.7331   20.9595 H   0  0  0  0  0  0  0  0  0  0  0  0
    0.8944   -9.0401   21.7502 H   0  0  0  0  0  0  0  0  0  0  0  0
    0.8295   -8.9158   18.5154 H   0  0  0  0  0  0  0  0  0  0  0  0
    1.0968   -7.9921   19.6870 H   0  0  0  0  0  0  0  0  0  0  0  0
    6.3318   -7.7348   19.4025 H   0  0  0  0  0  0  0  0  0  0  0  0
    5.5674   -5.7285   17.6867 H   0  0  0  0  0  0  0  0  0  0  0  0
    4.0429   -7.0629   16.8212 H   0  0  0  0  0  0  0  0  0  0  0  0
   -4.5490  -17.5006   24.2301 H   0  0  0  0  0  0  0  0  0  0  0  0
   -5.5064  -18.9449   25.9595 H   0  0  0  0  0  0  0  0  0  0  0  0
   -4.1181  -16.0212   29.7769 H   0  0  0  0  0  0  0  0  0  0  0  0
   -3.0528  -18.9351   29.9022 H   0  0  0  0  0  0  0  0  0  0  0  0
   -3.6040  -17.9143   31.3022 H   0  0  0  0  0  0  0  0  0  0  0  0
   -1.2722  -17.2428   29.3710 H   0  0  0  0  0  0  0  0  0  0  0  0
   -1.8306  -16.2041   30.7556 H   0  0  0  0  0  0  0  0  0  0  0  0
   -2.5063  -15.3768   27.3166 H   0  0  0  0  0  0  0  0  0  0  0  0
  1  2  2  0
  2  3  1  0
  3  4  1  0
  4  5  1  0
  5  6  1  0
  6  7  1  0
  7  8  1  0
  8  9  2  0
  9 10  1  0
 10 11  2  0
 11 12  1  0
  2 13  1  0
 13 14  2  0
 14 15  1  0
 15 16  2  0
 16 17  1  0
 17 18  1  0
 18 19  1  0
 19 20  1  0
 17 21  2  0
 12  8  1  0
 21 13  1  0
 20 18  1  0
  3 22  1  0
  4 23  1  0
  4 24  1  0
  5 25  1  0
  5 26  1  0
  6 27  1  0
  6 28  1  0
  7 29  1  0
  7 30  1  0
 10 31  1  0
 11 32  1  0
 12 33  1  0
 14 34  1  0
 15 35  1  0
 18 36  1  0
 19 37  1  0
 19 38  1  0
 20 39  1  0
 20 40  1  0
 21 41  1  0
M  END
>  <Energy>  (502) 
853.66004286237387

>  <compound_id>  (502) 
23270

>  <target_id>  (502) 
1

>  <reference_id>  (502) 
114

>  <inspiration_ids>  (502) 
[82, 114]

>  <energy_score>  (502) 
830.489299892009

>  <distance_score>  (502) 
11.50865482617793

>  <path>  (502) 
/opt/xchem-fragalysis-2/maxwin/BulkDock/SCRATCH/511025/C23270-P114/C23270-P114.minimised.mol

>  <scratch_subdir>  (502) 
/opt/xchem-fragalysis-2/maxwin/BulkDock/SCRATCH/511025/C23270-P114

>  <fragmenstein_runtime>  (502) 
21.20187473297119

>  <fragmenstein_outcome>  (502) 
too moved

>  <fragmenstein_mode>  (502) 
expansion

>  <fragmenstein_error>  (502) 


$$$$
C52674-P82
     RDKit          3D

 38 40  0  0  0  0  0  0  0  0999 V2000
   -0.2397  -15.5310   30.4461 O   0  0  0  0  0  0  0  0  0  0  0  0
   -0.9289  -14.9683   29.6450 C   0  0  0  0  0  0  0  0  0  0  0  0
   -0.6737  -13.7866   28.8435 N   0  0  0  0  0  0  0  0  0  0  0  0
    0.4654  -12.8584   28.8343 C   0  0  0  0  0  0  0  0  0  0  0  0
    0.8348  -12.0792   27.5285 C   0  0  0  0  0  0  0  0  0  0  0  0
    1.2278  -13.0473   26.3912 C   0  0  0  0  0  0  0  0  0  0  0  0
    2.1028  -12.9873   24.8424 C   0  0  0  0  0  0  0  0  0  0  0  0
    3.3873  -13.7274   24.6222 C   0  0  0  0  0  0  0  0  0  0  0  0
    3.1057  -13.8151   23.3578 N   0  0  0  0  0  0  0  0  0  0  0  0
    3.0726  -12.4941   23.0715 C   0  0  0  0  0  0  0  0  0  0  0  0
    2.0959  -12.0776   23.8153 N   0  0  0  0  0  0  0  0  0  0  0  0
   -2.3242  -15.5701   29.5309 C   0  0  0  0  0  0  0  0  0  0  0  0
   -3.4506  -14.7365   29.6234 C   0  0  0  0  0  0  0  0  0  0  0  0
   -4.7355  -15.2784   29.7239 C   0  0  0  0  0  0  0  0  0  0  0  0
   -4.8696  -16.6485   29.7274 C   0  0  0  0  0  0  0  0  0  0  0  0
   -3.8219  -17.4899   29.6283 N   0  0  0  0  0  0  0  0  0  0  0  0
   -2.5487  -16.9726   29.5519 C   0  0  0  0  0  0  0  0  0  0  0  0
   -1.4172  -17.9922   29.4996 C   0  0  0  0  0  0  0  0  0  0  0  0
   -1.6902  -19.4444   29.1643 C   0  0  0  0  0  0  0  0  0  0  0  0
   -0.9924  -18.5708   28.1691 C   0  0  0  0  0  0  0  0  0  0  0  0
   -1.4521  -13.6415   28.2107 H   0  0  0  0  0  0  0  0  0  0  0  0
    0.2354  -12.1201   29.6116 H   0  0  0  0  0  0  0  0  0  0  0  0
    1.3380  -13.4176   29.1915 H   0  0  0  0  0  0  0  0  0  0  0  0
   -0.0593  -11.5168   27.2641 H   0  0  0  0  0  0  0  0  0  0  0  0
    1.6007  -11.3521   27.7982 H   0  0  0  0  0  0  0  0  0  0  0  0
    0.2207  -13.3018   26.1669 H   0  0  0  0  0  0  0  0  0  0  0  0
    1.6928  -13.8811   26.9159 H   0  0  0  0  0  0  0  0  0  0  0  0
    4.0025  -14.3835   25.2394 H   0  0  0  0  0  0  0  0  0  0  0  0
    3.1948  -14.5877   22.7187 H   0  0  0  0  0  0  0  0  0  0  0  0
    3.6179  -12.0607   22.2646 H   0  0  0  0  0  0  0  0  0  0  0  0
   -3.3300  -13.6575   29.6835 H   0  0  0  0  0  0  0  0  0  0  0  0
   -5.6048  -14.6364   29.8202 H   0  0  0  0  0  0  0  0  0  0  0  0
   -5.8462  -17.1127   29.8159 H   0  0  0  0  0  0  0  0  0  0  0  0
   -0.6427  -17.8629   30.2529 H   0  0  0  0  0  0  0  0  0  0  0  0
   -2.7073  -19.7509   28.9505 H   0  0  0  0  0  0  0  0  0  0  0  0
   -1.1076  -20.1961   29.6844 H   0  0  0  0  0  0  0  0  0  0  0  0
    0.0675  -18.7283   28.0072 H   0  0  0  0  0  0  0  0  0  0  0  0
   -1.5487  -18.3030   27.2794 H   0  0  0  0  0  0  0  0  0  0  0  0
  1  2  2  0
  2  3  1  0
  3  4  1  0
  4  5  1  0
  5  6  1  0
  6  7  1  0
  7  8  2  0
  8  9  1  0
  9 10  1  0
 10 11  2  0
  2 12  1  0
 12 13  2  0
 13 14  1  0
 14 15  2  0
 15 16  1  0
 16 17  2  0
 17 18  1  0
 18 19  1  0
 19 20  1  0
 11  7  1  0
 17 12  1  0
 20 18  1  0
  3 21  1  0
  4 22  1  0
  4 23  1  0
  5 24  1  0
  5 25  1  0
  6 26  1  0
  6 27  1  0
  8 28  1  0
  9 29  1  0
 10 30  1  0
 13 31  1  0
 14 32  1  0
 15 33  1  0
 18 34  1  0
 19 35  1  0
 19 36  1  0
 20 37  1  0
 20 38  1  0
M  END
>  <Energy>  (503) 
134.05785061384543

>  <compound_id>  (503) 
52674

>  <target_id>  (503) 
1

>  <reference_id>  (503) 
82

>  <inspiration_ids>  (503) 
[82, 114]

>  <energy_score>  (503) 
90.53849120736805

>  <distance_score>  (503) 
15.014086482114076

>  <path>  (503) 
/opt/xchem-fragalysis-2/maxwin/BulkDock/SCRATCH/511025/C52674-P82/C52674-P82.minimised.mol

>  <scratch_subdir>  (503) 
/opt/xchem-fragalysis-2/maxwin/BulkDock/SCRATCH/511025/C52674-P82

>  <fragmenstein_runtime>  (503) 
32.32083296775818

>  <fragmenstein_outcome>  (503) 
too moved

>  <fragmenstein_mode>  (503) 
expansion

>  <fragmenstein_error>  (503) 


$$$$
C52674-P114
     RDKit          3D

 38 40  0  0  0  0  0  0  0  0999 V2000
   -1.7721  -12.9491   26.5242 O   0  0  0  0  0  0  0  0  0  0  0  0
   -1.9798  -13.9314   25.8362 C   0  0  0  0  0  0  0  0  0  0  0  0
   -1.1012  -14.5725   24.6541 N   0  0  0  0  0  0  0  0  0  0  0  0
    0.5725  -14.1290   24.0272 C   0  0  0  0  0  0  0  0  0  0  0  0
    2.0703  -12.8380   24.1349 C   0  0  0  0  0  0  0  0  0  0  0  0
    2.9285  -11.9931   22.9695 C   0  0  0  0  0  0  0  0  0  0  0  0
    3.6292  -10.2577   23.0654 C   0  0  0  0  0  0  0  0  0  0  0  0
    5.2665   -9.8608   23.1787 C   0  0  0  0  0  0  0  0  0  0  0  0
    5.4227   -8.4109   23.1148 N   0  0  0  0  0  0  0  0  0  0  0  0
    4.2109   -7.6800   22.8597 C   0  0  0  0  0  0  0  0  0  0  0  0
    3.0955   -8.5073   22.7982 N   0  0  0  0  0  0  0  0  0  0  0  0
   -3.2986  -14.7127   26.3423 C   0  0  0  0  0  0  0  0  0  0  0  0
   -3.3511  -14.7097   27.7735 C   0  0  0  0  0  0  0  0  0  0  0  0
   -4.1705  -15.5496   28.5492 C   0  0  0  0  0  0  0  0  0  0  0  0
   -4.9551  -16.4543   27.8942 C   0  0  0  0  0  0  0  0  0  0  0  0
   -4.9854  -16.5044   26.5551 N   0  0  0  0  0  0  0  0  0  0  0  0
   -4.2105  -15.6314   25.7858 C   0  0  0  0  0  0  0  0  0  0  0  0
   -4.5708  -15.6866   24.3337 C   0  0  0  0  0  0  0  0  0  0  0  0
   -5.4497  -16.7696   23.7409 C   0  0  0  0  0  0  0  0  0  0  0  0
   -6.0163  -15.4013   23.9603 C   0  0  0  0  0  0  0  0  0  0  0  0
   -1.6074  -15.3436   24.2370 H   0  0  0  0  0  0  0  0  0  0  0  0
    0.7389  -13.9605   25.0880 H   0  0  0  0  0  0  0  0  0  0  0  0
   -0.0420  -13.8617   23.1631 H   0  0  0  0  0  0  0  0  0  0  0  0
    2.8978  -13.4567   24.4802 H   0  0  0  0  0  0  0  0  0  0  0  0
    1.7799  -12.1047   24.8521 H   0  0  0  0  0  0  0  0  0  0  0  0
    3.7871  -12.4953   23.3045 H   0  0  0  0  0  0  0  0  0  0  0  0
    3.2531  -12.4664   22.0369 H   0  0  0  0  0  0  0  0  0  0  0  0
    6.1280  -10.5119   23.2512 H   0  0  0  0  0  0  0  0  0  0  0  0
    6.3247   -7.9612   23.1517 H   0  0  0  0  0  0  0  0  0  0  0  0
    4.2100   -6.6056   22.7352 H   0  0  0  0  0  0  0  0  0  0  0  0
   -2.6758  -14.0524   28.3263 H   0  0  0  0  0  0  0  0  0  0  0  0
   -4.1471  -15.5038   29.6321 H   0  0  0  0  0  0  0  0  0  0  0  0
   -5.5922  -17.1590   28.4180 H   0  0  0  0  0  0  0  0  0  0  0  0
   -3.7931  -15.3503   23.6869 H   0  0  0  0  0  0  0  0  0  0  0  0
   -5.8023  -17.5722   24.3792 H   0  0  0  0  0  0  0  0  0  0  0  0
   -5.2670  -17.0761   22.7171 H   0  0  0  0  0  0  0  0  0  0  0  0
   -6.7448  -15.2829   24.7574 H   0  0  0  0  0  0  0  0  0  0  0  0
   -6.2332  -14.7861   23.0987 H   0  0  0  0  0  0  0  0  0  0  0  0
  1  2  2  0
  2  3  1  0
  3  4  1  0
  4  5  1  0
  5  6  1  0
  6  7  1  0
  7  8  2  0
  8  9  1  0
  9 10  1  0
 10 11  2  0
  2 12  1  0
 12 13  2  0
 13 14  1  0
 14 15  2  0
 15 16  1  0
 16 17  2  0
 17 18  1  0
 18 19  1  0
 19 20  1  0
 11  7  1  0
 17 12  1  0
 20 18  1  0
  3 21  1  0
  4 22  1  0
  4 23  1  0
  5 24  1  0
  5 25  1  0
  6 26  1  0
  6 27  1  0
  8 28  1  0
  9 29  1  0
 10 30  1  0
 13 31  1  0
 14 32  1  0
 15 33  1  0
 18 34  1  0
 19 35  1  0
 19 36  1  0
 20 37  1  0
 20 38  1  0
M  END
>  <Energy>  (504) 
418.35875468491849

>  <compound_id>  (504) 
52674

>  <target_id>  (504) 
1

>  <reference_id>  (504) 
114

>  <inspiration_ids>  (504) 
[82, 114]

>  <energy_score>  (504) 
374.8393952784346

>  <distance_score>  (504) 
13.772180378526354

>  <path>  (504) 
/opt/xchem-fragalysis-2/maxwin/BulkDock/SCRATCH/511025/C52674-P114/C52674-P114.minimised.mol

>  <scratch_subdir>  (504) 
/opt/xchem-fragalysis-2/maxwin/BulkDock/SCRATCH/511025/C52674-P114

>  <fragmenstein_runtime>  (504) 
20.283250093460083

>  <fragmenstein_outcome>  (504) 
too moved

>  <fragmenstein_mode>  (504) 
expansion

>  <fragmenstein_error>  (504) 


$$$$
C52675-P82
     RDKit          3D

 39 41  0  0  0  0  0  0  0  0999 V2000
    0.7147   -3.2451   26.3945 O   0  0  0  0  0  0  0  0  0  0  0  0
    0.2993   -4.0842   25.6407 C   0  0  0  0  0  0  0  0  0  0  0  0
   -0.9079   -4.9187   25.7099 N   0  0  0  0  0  0  0  0  0  0  0  0
   -2.0503   -4.9185   26.6844 C   0  0  0  0  0  0  0  0  0  0  0  0
   -1.9569   -5.7289   28.0103 C   0  0  0  0  0  0  0  0  0  0  0  0
   -3.3617   -6.2033   28.7181 C   0  0  0  0  0  0  0  0  0  0  0  0
   -3.5181   -6.3417   30.1143 C   0  0  0  0  0  0  0  0  0  0  0  0
   -4.7075   -6.8353   30.6986 C   0  0  0  0  0  0  0  0  0  0  0  0
   -5.7703   -7.1940   29.8918 C   0  0  0  0  0  0  0  0  0  0  0  0
   -5.5803   -7.0402   28.5355 C   0  0  0  0  0  0  0  0  0  0  0  0
   -4.4293   -6.5634   27.9526 N   0  0  0  0  0  0  0  0  0  0  0  0
   -0.7955   -5.2993   28.9092 C   0  0  0  0  0  0  0  0  0  0  0  0
   -0.7440   -6.6298   28.2328 C   0  0  0  0  0  0  0  0  0  0  0  0
    1.0878   -4.3259   24.2304 C   0  0  0  0  0  0  0  0  0  0  0  0
    0.8293   -5.6215   23.7029 O   0  0  0  0  0  0  0  0  0  0  0  0
    2.6315   -3.9834   24.2109 C   0  0  0  0  0  0  0  0  0  0  0  0
    3.3266   -3.8904   22.8552 C   0  0  0  0  0  0  0  0  0  0  0  0
    3.2996   -4.7631   21.7845 C   0  0  0  0  0  0  0  0  0  0  0  0
    4.1257   -4.2310   20.8320 N   0  0  0  0  0  0  0  0  0  0  0  0
    4.6528   -3.0827   21.3449 C   0  0  0  0  0  0  0  0  0  0  0  0
    4.2141   -2.8580   22.5647 N   0  0  0  0  0  0  0  0  0  0  0  0
   -0.9857   -5.4639   24.8523 H   0  0  0  0  0  0  0  0  0  0  0  0
   -2.9098   -5.2737   26.1087 H   0  0  0  0  0  0  0  0  0  0  0  0
   -2.2306   -3.8691   26.9439 H   0  0  0  0  0  0  0  0  0  0  0  0
   -2.7078   -6.0656   30.7807 H   0  0  0  0  0  0  0  0  0  0  0  0
   -4.7856   -6.9202   31.7791 H   0  0  0  0  0  0  0  0  0  0  0  0
   -6.6991   -7.5789   30.2928 H   0  0  0  0  0  0  0  0  0  0  0  0
   -6.3673   -7.3086   27.8362 H   0  0  0  0  0  0  0  0  0  0  0  0
   -0.9015   -5.2713   29.9842 H   0  0  0  0  0  0  0  0  0  0  0  0
   -0.1257   -4.5228   28.5502 H   0  0  0  0  0  0  0  0  0  0  0  0
   -0.8245   -7.5011   28.8676 H   0  0  0  0  0  0  0  0  0  0  0  0
   -0.0602   -6.7639   27.4043 H   0  0  0  0  0  0  0  0  0  0  0  0
    0.5997   -3.6243   23.5407 H   0  0  0  0  0  0  0  0  0  0  0  0
    1.2226   -6.2719   24.3260 H   0  0  0  0  0  0  0  0  0  0  0  0
    3.1608   -4.7486   24.7919 H   0  0  0  0  0  0  0  0  0  0  0  0
    2.7814   -3.0302   24.7322 H   0  0  0  0  0  0  0  0  0  0  0  0
    2.7552   -5.6854   21.6234 H   0  0  0  0  0  0  0  0  0  0  0  0
    4.2883   -4.6131   19.9112 H   0  0  0  0  0  0  0  0  0  0  0  0
    5.3354   -2.4552   20.7913 H   0  0  0  0  0  0  0  0  0  0  0  0
  1  2  2  0
  2  3  1  0
  3  4  1  0
  4  5  1  0
  5  6  1  0
  6  7  2  0
  7  8  1  0
  8  9  2  0
  9 10  1  0
 10 11  2  0
  5 12  1  0
 12 13  1  0
  2 14  1  0
 14 15  1  0
 14 16  1  0
 16 17  1  0
 17 18  2  0
 18 19  1  0
 19 20  1  0
 20 21  2  0
 13  5  1  0
 21 17  1  0
 11  6  1  0
  3 22  1  0
  4 23  1  0
  4 24  1  0
  7 25  1  0
  8 26  1  0
  9 27  1  0
 10 28  1  0
 12 29  1  0
 12 30  1  0
 13 31  1  0
 13 32  1  0
 14 33  1  0
 15 34  1  0
 16 35  1  0
 16 36  1  0
 18 37  1  0
 19 38  1  0
 20 39  1  0
M  END
>  <Energy>  (505) 
68.882338075710123

>  <compound_id>  (505) 
52675

>  <target_id>  (505) 
1

>  <reference_id>  (505) 
82

>  <inspiration_ids>  (505) 
[82, 114]

>  <energy_score>  (505) 
-1.953618919933433

>  <distance_score>  (505) 
16.55067873720767

>  <path>  (505) 
/opt/xchem-fragalysis-2/maxwin/BulkDock/SCRATCH/511025/C52675-P82/C52675-P82.minimised.mol

>  <scratch_subdir>  (505) 
/opt/xchem-fragalysis-2/maxwin/BulkDock/SCRATCH/511025/C52675-P82

>  <fragmenstein_runtime>  (505) 
61.195308685302734

>  <fragmenstein_outcome>  (505) 
too moved

>  <fragmenstein_mode>  (505) 
expansion

>  <fragmenstein_error>  (505) 


$$$$
C52675-P114
     RDKit          3D

 39 41  0  0  0  0  0  0  0  0999 V2000
   -3.7864  -13.9244   15.8207 O   0  0  0  0  0  0  0  0  0  0  0  0
   -3.0234  -14.8375   15.6329 C   0  0  0  0  0  0  0  0  0  0  0  0
   -3.1501  -16.2762   15.9477 N   0  0  0  0  0  0  0  0  0  0  0  0
   -4.3324  -17.0846   16.5212 C   0  0  0  0  0  0  0  0  0  0  0  0
   -4.0501  -18.1037   17.7036 C   0  0  0  0  0  0  0  0  0  0  0  0
   -5.2446  -18.9621   18.4780 C   0  0  0  0  0  0  0  0  0  0  0  0
   -6.0303  -18.4427   19.5229 C   0  0  0  0  0  0  0  0  0  0  0  0
   -6.8573  -19.2390   20.3421 C   0  0  0  0  0  0  0  0  0  0  0  0
   -6.8890  -20.6004   20.1392 C   0  0  0  0  0  0  0  0  0  0  0  0
   -6.1057  -21.0792   19.1079 C   0  0  0  0  0  0  0  0  0  0  0  0
   -5.3157  -20.3114   18.2876 N   0  0  0  0  0  0  0  0  0  0  0  0
   -2.7394  -18.8731   17.5624 C   0  0  0  0  0  0  0  0  0  0  0  0
   -2.8723  -17.8138   18.6137 C   0  0  0  0  0  0  0  0  0  0  0  0
   -1.6140  -14.4356   14.8462 C   0  0  0  0  0  0  0  0  0  0  0  0
   -0.6850  -15.5082   14.7613 O   0  0  0  0  0  0  0  0  0  0  0  0
   -0.9554  -13.0763   15.3918 C   0  0  0  0  0  0  0  0  0  0  0  0
    0.3030  -12.4811   14.7476 C   0  0  0  0  0  0  0  0  0  0  0  0
    0.4419  -11.2842   14.0602 C   0  0  0  0  0  0  0  0  0  0  0  0
    1.7889  -11.0731   13.9063 N   0  0  0  0  0  0  0  0  0  0  0  0
    2.4282  -12.1232   14.4961 C   0  0  0  0  0  0  0  0  0  0  0  0
    1.5695  -12.9768   15.0203 N   0  0  0  0  0  0  0  0  0  0  0  0
   -2.3448  -16.7713   15.5714 H   0  0  0  0  0  0  0  0  0  0  0  0
   -4.7281  -17.6552   15.6744 H   0  0  0  0  0  0  0  0  0  0  0  0
   -5.0837  -16.3556   16.8183 H   0  0  0  0  0  0  0  0  0  0  0  0
   -5.9613  -17.4073   19.7924 H   0  0  0  0  0  0  0  0  0  0  0  0
   -7.4121  -18.7830   21.1586 H   0  0  0  0  0  0  0  0  0  0  0  0
   -7.4799  -21.2599   20.7602 H   0  0  0  0  0  0  0  0  0  0  0  0
   -6.0736  -22.1428   18.8865 H   0  0  0  0  0  0  0  0  0  0  0  0
   -2.0915  -18.6867   16.7168 H   0  0  0  0  0  0  0  0  0  0  0  0
   -2.7207  -19.9114   17.8797 H   0  0  0  0  0  0  0  0  0  0  0  0
   -2.8929  -18.1561   19.6345 H   0  0  0  0  0  0  0  0  0  0  0  0
   -2.3796  -16.8625   18.5172 H   0  0  0  0  0  0  0  0  0  0  0  0
   -1.9310  -14.2402   13.8137 H   0  0  0  0  0  0  0  0  0  0  0  0
    0.2107  -15.1143   14.7816 H   0  0  0  0  0  0  0  0  0  0  0  0
   -1.7360  -12.3043   15.3574 H   0  0  0  0  0  0  0  0  0  0  0  0
   -0.7441  -13.2175   16.4558 H   0  0  0  0  0  0  0  0  0  0  0  0
   -0.2865  -10.5615   13.7181 H   0  0  0  0  0  0  0  0  0  0  0  0
    2.2277  -10.2827   13.4526 H   0  0  0  0  0  0  0  0  0  0  0  0
    3.5065  -12.2122   14.5195 H   0  0  0  0  0  0  0  0  0  0  0  0
  1  2  2  0
  2  3  1  0
  3  4  1  0
  4  5  1  0
  5  6  1  0
  6  7  2  0
  7  8  1  0
  8  9  2  0
  9 10  1  0
 10 11  2  0
  5 12  1  0
 12 13  1  0
  2 14  1  0
 14 15  1  0
 14 16  1  0
 16 17  1  0
 17 18  2  0
 18 19  1  0
 19 20  1  0
 20 21  2  0
 13  5  1  0
 21 17  1  0
 11  6  1  0
  3 22  1  0
  4 23  1  0
  4 24  1  0
  7 25  1  0
  8 26  1  0
  9 27  1  0
 10 28  1  0
 12 29  1  0
 12 30  1  0
 13 31  1  0
 13 32  1  0
 14 33  1  0
 15 34  1  0
 16 35  1  0
 16 36  1  0
 18 37  1  0
 19 38  1  0
 20 39  1  0
M  END
>  <Energy>  (506) 
78.657910059129222

>  <compound_id>  (506) 
52675

>  <target_id>  (506) 
1

>  <reference_id>  (506) 
114

>  <inspiration_ids>  (506) 
[82, 114]

>  <energy_score>  (506) 
7.821953063491151

>  <distance_score>  (506) 
14.990795816140338

>  <path>  (506) 
/opt/xchem-fragalysis-2/maxwin/BulkDock/SCRATCH/511025/C52675-P114/C52675-P114.minimised.mol

>  <scratch_subdir>  (506) 
/opt/xchem-fragalysis-2/maxwin/BulkDock/SCRATCH/511025/C52675-P114

>  <fragmenstein_runtime>  (506) 
35.572946071624756

>  <fragmenstein_outcome>  (506) 
too moved

>  <fragmenstein_mode>  (506) 
expansion

>  <fragmenstein_error>  (506) 


$$$$
C52676-P82
     RDKit          3D

 35 36  0  0  0  0  0  0  0  0999 V2000
   -6.6847   -8.8455   25.0041 C   0  0  0  0  0  0  0  0  0  0  0  0
   -5.5508   -9.5423   24.4710 N   0  0  0  0  0  0  0  0  0  0  0  0
   -5.0981   -9.7109   23.1127 C   0  0  0  0  0  0  0  0  0  0  0  0
   -5.5094   -9.2463   22.0890 O   0  0  0  0  0  0  0  0  0  0  0  0
   -3.8770  -10.6784   23.1083 C   0  0  0  0  0  0  0  0  0  0  0  0
   -3.1457  -10.6780   21.7331 C   0  0  0  0  0  0  0  0  0  0  0  0
   -2.1883   -9.5035   21.4583 C   0  0  0  0  0  0  0  0  0  0  0  0
   -1.9517   -8.8388   20.2659 C   0  0  0  0  0  0  0  0  0  0  0  0
   -0.9055   -7.9841   20.4989 N   0  0  0  0  0  0  0  0  0  0  0  0
   -0.5793   -8.1078   21.8147 C   0  0  0  0  0  0  0  0  0  0  0  0
   -1.3288   -9.0063   22.4216 N   0  0  0  0  0  0  0  0  0  0  0  0
   -4.3984  -12.0084   23.6014 N   0  0  0  0  0  0  0  0  0  0  0  0
   -4.2631  -12.6631   24.8847 C   0  0  0  0  0  0  0  0  0  0  0  0
   -3.6359  -12.3522   25.8566 O   0  0  0  0  0  0  0  0  0  0  0  0
   -5.1009  -13.9234   25.1152 C   0  0  0  0  0  0  0  0  0  0  0  0
   -6.4253  -14.0886   24.6966 C   0  0  0  0  0  0  0  0  0  0  0  0
   -7.1742  -15.2079   25.1210 C   0  0  0  0  0  0  0  0  0  0  0  0
   -6.5845  -16.1457   25.9562 C   0  0  0  0  0  0  0  0  0  0  0  0
   -5.3149  -16.0344   26.3865 N   0  0  0  0  0  0  0  0  0  0  0  0
   -4.6190  -14.9274   25.9722 C   0  0  0  0  0  0  0  0  0  0  0  0
   -6.3640   -8.2708   25.8754 H   0  0  0  0  0  0  0  0  0  0  0  0
   -7.1027   -8.1835   24.2424 H   0  0  0  0  0  0  0  0  0  0  0  0
   -7.4331   -9.5828   25.3036 H   0  0  0  0  0  0  0  0  0  0  0  0
   -5.0138  -10.1567   25.0784 H   0  0  0  0  0  0  0  0  0  0  0  0
   -3.1868  -10.3205   23.8804 H   0  0  0  0  0  0  0  0  0  0  0  0
   -2.5489  -11.5954   21.6513 H   0  0  0  0  0  0  0  0  0  0  0  0
   -3.8769  -10.7312   20.9166 H   0  0  0  0  0  0  0  0  0  0  0  0
   -2.3823   -8.9493   19.2816 H   0  0  0  0  0  0  0  0  0  0  0  0
   -0.4387   -7.4069   19.8143 H   0  0  0  0  0  0  0  0  0  0  0  0
    0.2072   -7.5323   22.2747 H   0  0  0  0  0  0  0  0  0  0  0  0
   -4.9459  -12.5993   22.9843 H   0  0  0  0  0  0  0  0  0  0  0  0
   -6.9102  -13.3315   24.0859 H   0  0  0  0  0  0  0  0  0  0  0  0
   -8.2073  -15.3268   24.8100 H   0  0  0  0  0  0  0  0  0  0  0  0
   -7.1271  -17.0177   26.3081 H   0  0  0  0  0  0  0  0  0  0  0  0
   -3.6139  -14.8573   26.3873 H   0  0  0  0  0  0  0  0  0  0  0  0
  1  2  1  0
  2  3  1  0
  3  4  2  0
  3  5  1  0
  5  6  1  0
  6  7  1  0
  7  8  2  0
  8  9  1  0
  9 10  1  0
 10 11  2  0
  5 12  1  0
 12 13  1  0
 13 14  2  0
 13 15  1  0
 15 16  2  0
 16 17  1  0
 17 18  2  0
 18 19  1  0
 19 20  2  0
 11  7  1  0
 20 15  1  0
  1 21  1  0
  1 22  1  0
  1 23  1  0
  2 24  1  0
  5 25  1  0
  6 26  1  0
  6 27  1  0
  8 28  1  0
  9 29  1  0
 10 30  1  0
 12 31  1  0
 16 32  1  0
 17 33  1  0
 18 34  1  0
 20 35  1  0
M  END
>  <Energy>  (507) 
46.508204201627429

>  <compound_id>  (507) 
52676

>  <target_id>  (507) 
1

>  <reference_id>  (507) 
82

>  <inspiration_ids>  (507) 
[82, 114]

>  <energy_score>  (507) 
-6.144912301319323

>  <distance_score>  (507) 
14.997933354063864

>  <path>  (507) 
/opt/xchem-fragalysis-2/maxwin/BulkDock/SCRATCH/511025/C52676-P82/C52676-P82.minimised.mol

>  <scratch_subdir>  (507) 
/opt/xchem-fragalysis-2/maxwin/BulkDock/SCRATCH/511025/C52676-P82

>  <fragmenstein_runtime>  (507) 
41.48480558395386

>  <fragmenstein_outcome>  (507) 
too moved

>  <fragmenstein_mode>  (507) 
expansion

>  <fragmenstein_error>  (507) 


$$$$
C52676-P114
     RDKit          3D

 35 36  0  0  0  0  0  0  0  0999 V2000
   -4.8232   -8.3900   18.9584 C   0  0  0  0  0  0  0  0  0  0  0  0
   -4.0488   -8.9328   20.0334 N   0  0  0  0  0  0  0  0  0  0  0  0
   -4.4492   -9.5685   21.2531 C   0  0  0  0  0  0  0  0  0  0  0  0
   -5.5395   -9.7402   21.7266 O   0  0  0  0  0  0  0  0  0  0  0  0
   -3.1976  -10.0854   22.0444 C   0  0  0  0  0  0  0  0  0  0  0  0
   -2.4017   -8.8731   22.6265 C   0  0  0  0  0  0  0  0  0  0  0  0
   -1.4118   -8.1279   21.7098 C   0  0  0  0  0  0  0  0  0  0  0  0
   -0.4683   -7.1713   22.0562 C   0  0  0  0  0  0  0  0  0  0  0  0
    0.1071   -6.7531   20.8826 N   0  0  0  0  0  0  0  0  0  0  0  0
   -0.4646   -7.4739   19.8783 C   0  0  0  0  0  0  0  0  0  0  0  0
   -1.4034   -8.2769   20.3381 N   0  0  0  0  0  0  0  0  0  0  0  0
   -3.7665  -11.0694   23.0549 N   0  0  0  0  0  0  0  0  0  0  0  0
   -3.6239  -12.5103   23.1643 C   0  0  0  0  0  0  0  0  0  0  0  0
   -2.9555  -13.2781   22.5319 O   0  0  0  0  0  0  0  0  0  0  0  0
   -4.5003  -13.2374   24.2107 C   0  0  0  0  0  0  0  0  0  0  0  0
   -5.7241  -12.7960   24.7267 C   0  0  0  0  0  0  0  0  0  0  0  0
   -6.4669  -13.6047   25.6192 C   0  0  0  0  0  0  0  0  0  0  0  0
   -5.9810  -14.8533   25.9770 C   0  0  0  0  0  0  0  0  0  0  0  0
   -4.8218  -15.3387   25.4999 N   0  0  0  0  0  0  0  0  0  0  0  0
   -4.1263  -14.5301   24.6328 C   0  0  0  0  0  0  0  0  0  0  0  0
   -5.8633   -8.2762   19.2720 H   0  0  0  0  0  0  0  0  0  0  0  0
   -4.7662   -9.0763   18.1104 H   0  0  0  0  0  0  0  0  0  0  0  0
   -4.4012   -7.4226   18.6777 H   0  0  0  0  0  0  0  0  0  0  0  0
   -3.0352   -9.0461   19.9146 H   0  0  0  0  0  0  0  0  0  0  0  0
   -2.5698  -10.6791   21.3698 H   0  0  0  0  0  0  0  0  0  0  0  0
   -3.1152   -8.1265   23.0006 H   0  0  0  0  0  0  0  0  0  0  0  0
   -1.8325   -9.2048   23.5009 H   0  0  0  0  0  0  0  0  0  0  0  0
   -0.1843   -6.7504   23.0095 H   0  0  0  0  0  0  0  0  0  0  0  0
    0.8378   -6.0617   20.7759 H   0  0  0  0  0  0  0  0  0  0  0  0
   -0.1665   -7.3779   18.8430 H   0  0  0  0  0  0  0  0  0  0  0  0
   -4.4831  -10.7580   23.6990 H   0  0  0  0  0  0  0  0  0  0  0  0
   -6.1483  -11.8440   24.4190 H   0  0  0  0  0  0  0  0  0  0  0  0
   -7.4181  -13.2564   26.0099 H   0  0  0  0  0  0  0  0  0  0  0  0
   -6.5219  -15.5027   26.6578 H   0  0  0  0  0  0  0  0  0  0  0  0
   -3.2050  -14.9811   24.2634 H   0  0  0  0  0  0  0  0  0  0  0  0
  1  2  1  0
  2  3  1  0
  3  4  2  0
  3  5  1  0
  5  6  1  0
  6  7  1  0
  7  8  2  0
  8  9  1  0
  9 10  1  0
 10 11  2  0
  5 12  1  0
 12 13  1  0
 13 14  2  0
 13 15  1  0
 15 16  2  0
 16 17  1  0
 17 18  2  0
 18 19  1  0
 19 20  2  0
 11  7  1  0
 20 15  1  0
  1 21  1  0
  1 22  1  0
  1 23  1  0
  2 24  1  0
  5 25  1  0
  6 26  1  0
  6 27  1  0
  8 28  1  0
  9 29  1  0
 10 30  1  0
 12 31  1  0
 16 32  1  0
 17 33  1  0
 18 34  1  0
 20 35  1  0
M  END
>  <Energy>  (508) 
42.700485078383117

>  <compound_id>  (508) 
52676

>  <target_id>  (508) 
1

>  <reference_id>  (508) 
114

>  <inspiration_ids>  (508) 
[82, 114]

>  <energy_score>  (508) 
-9.952631424564856

>  <distance_score>  (508) 
15.241342829309408

>  <path>  (508) 
/opt/xchem-fragalysis-2/maxwin/BulkDock/SCRATCH/511025/C52676-P114/C52676-P114.minimised.mol

>  <scratch_subdir>  (508) 
/opt/xchem-fragalysis-2/maxwin/BulkDock/SCRATCH/511025/C52676-P114

>  <fragmenstein_runtime>  (508) 
41.69203329086304

>  <fragmenstein_outcome>  (508) 
too moved

>  <fragmenstein_mode>  (508) 
expansion

>  <fragmenstein_error>  (508) 


$$$$
C52677-P82
     RDKit          3D

 42 43  0  0  0  0  0  0  0  0999 V2000
  -10.0974  -32.8402   39.3283 C   0  0  0  0  0  0  0  0  0  0  0  0
  -10.8647  -31.6867   38.7055 C   0  0  0  0  0  0  0  0  0  0  0  0
   -9.9545  -30.8903   37.9462 O   0  0  0  0  0  0  0  0  0  0  0  0
  -10.6106  -30.0150   37.1125 C   0  0  0  0  0  0  0  0  0  0  0  0
  -12.4878  -29.6561   37.2491 C   0  0  0  0  0  0  0  0  0  0  0  0
  -13.1983  -28.1619   35.9425 C   0  0  0  0  0  0  0  0  0  0  0  0
  -11.8986  -26.8152   35.2821 C   0  0  0  0  0  0  0  0  0  0  0  0
  -12.4174  -25.3348   34.0113 C   0  0  0  0  0  0  0  0  0  0  0  0
  -13.6137  -25.2183   34.0015 O   0  0  0  0  0  0  0  0  0  0  0  0
  -11.3668  -24.2460   32.9687 N   0  0  0  0  0  0  0  0  0  0  0  0
  -11.8229  -22.9023   31.6476 C   0  0  0  0  0  0  0  0  0  0  0  0
  -11.2251  -21.7401   30.0827 C   0  0  0  0  0  0  0  0  0  0  0  0
  -10.5003  -20.0628   29.3818 C   0  0  0  0  0  0  0  0  0  0  0  0
  -10.9761  -18.1824   28.9921 C   0  0  0  0  0  0  0  0  0  0  0  0
  -10.0296  -17.2411   28.4700 N   0  0  0  0  0  0  0  0  0  0  0  0
   -8.8880  -17.8939   28.1701 C   0  0  0  0  0  0  0  0  0  0  0  0
   -9.0488  -19.2761   28.4167 N   0  0  0  0  0  0  0  0  0  0  0  0
  -13.3101  -22.3888   31.9026 C   0  0  0  0  0  0  0  0  0  0  0  0
  -13.8293  -21.8251   30.9930 O   0  0  0  0  0  0  0  0  0  0  0  0
  -13.7912  -22.6949   33.1810 N   0  0  0  0  0  0  0  0  0  0  0  0
  -15.0864  -22.5140   33.7676 C   0  0  0  0  0  0  0  0  0  0  0  0
  -10.5385  -27.7871   34.6798 C   0  0  0  0  0  0  0  0  0  0  0  0
   -9.6908  -29.3344   35.5627 N   0  0  0  0  0  0  0  0  0  0  0  0
  -10.7723  -33.5014   39.8792 H   0  0  0  0  0  0  0  0  0  0  0  0
   -9.5828  -33.4219   38.5563 H   0  0  0  0  0  0  0  0  0  0  0  0
   -9.3315  -32.4762   40.0184 H   0  0  0  0  0  0  0  0  0  0  0  0
  -11.6496  -32.1118   38.0706 H   0  0  0  0  0  0  0  0  0  0  0  0
  -11.3176  -31.0776   39.4961 H   0  0  0  0  0  0  0  0  0  0  0  0
  -13.1522  -30.1239   37.9801 H   0  0  0  0  0  0  0  0  0  0  0  0
  -14.2521  -27.8135   36.1233 H   0  0  0  0  0  0  0  0  0  0  0  0
  -10.4043  -24.5509   33.0490 H   0  0  0  0  0  0  0  0  0  0  0  0
  -12.0427  -23.7315   30.9470 H   0  0  0  0  0  0  0  0  0  0  0  0
  -10.8206  -22.4684   29.3628 H   0  0  0  0  0  0  0  0  0  0  0  0
  -12.2020  -21.5473   29.6196 H   0  0  0  0  0  0  0  0  0  0  0  0
  -12.0019  -17.8043   28.9867 H   0  0  0  0  0  0  0  0  0  0  0  0
  -10.2237  -16.2598   28.3244 H   0  0  0  0  0  0  0  0  0  0  0  0
   -7.9896  -17.3635   27.9226 H   0  0  0  0  0  0  0  0  0  0  0  0
  -13.1016  -23.2583   33.6646 H   0  0  0  0  0  0  0  0  0  0  0  0
  -15.8434  -22.6090   32.9841 H   0  0  0  0  0  0  0  0  0  0  0  0
  -15.1453  -21.5051   34.1794 H   0  0  0  0  0  0  0  0  0  0  0  0
  -15.2611  -23.2662   34.5353 H   0  0  0  0  0  0  0  0  0  0  0  0
  -10.5122  -27.6319   33.6045 H   0  0  0  0  0  0  0  0  0  0  0  0
  1  2  1  0
  2  3  1  0
  3  4  1  0
  4  5  2  0
  5  6  1  0
  6  7  2  0
  7  8  1  0
  8  9  2  0
  8 10  1  0
 10 11  1  0
 11 12  1  0
 12 13  1  0
 13 14  2  0
 14 15  1  0
 15 16  1  0
 16 17  2  0
 11 18  1  0
 18 19  2  0
 18 20  1  0
 20 21  1  0
  7 22  1  0
 22 23  2  0
 23  4  1  0
 17 13  1  0
  1 24  1  0
  1 25  1  0
  1 26  1  0
  2 27  1  0
  2 28  1  0
  5 29  1  0
  6 30  1  0
 10 31  1  0
 11 32  1  0
 12 33  1  0
 12 34  1  0
 14 35  1  0
 15 36  1  0
 16 37  1  0
 20 38  1  0
 21 39  1  0
 21 40  1  0
 21 41  1  0
 22 42  1  0
M  END
>  <Energy>  (509) 
1331.9322635212106

>  <compound_id>  (509) 
52677

>  <target_id>  (509) 
1

>  <reference_id>  (509) 
82

>  <inspiration_ids>  (509) 
[82, 114]

>  <energy_score>  (509) 
1273.9460343747023

>  <distance_score>  (509) 
19.07140428414497

>  <path>  (509) 
/opt/xchem-fragalysis-2/maxwin/BulkDock/SCRATCH/511025/C52677-P82/C52677-P82.minimised.mol

>  <scratch_subdir>  (509) 
/opt/xchem-fragalysis-2/maxwin/BulkDock/SCRATCH/511025/C52677-P82

>  <fragmenstein_runtime>  (509) 
35.417818784713745

>  <fragmenstein_outcome>  (509) 
too moved

>  <fragmenstein_mode>  (509) 
expansion

>  <fragmenstein_error>  (509) 


$$$$
C52677-P114
     RDKit          3D

 42 43  0  0  0  0  0  0  0  0999 V2000
   -9.3623  -15.1686   26.4018 C   0  0  0  0  0  0  0  0  0  0  0  0
   -8.1433  -14.5229   25.7646 C   0  0  0  0  0  0  0  0  0  0  0  0
   -7.1246  -14.4230   26.7645 O   0  0  0  0  0  0  0  0  0  0  0  0
   -6.1894  -13.4612   26.4612 C   0  0  0  0  0  0  0  0  0  0  0  0
   -5.5531  -12.8444   27.5149 C   0  0  0  0  0  0  0  0  0  0  0  0
   -4.6670  -11.7911   27.2222 C   0  0  0  0  0  0  0  0  0  0  0  0
   -4.4053  -11.3603   25.8963 C   0  0  0  0  0  0  0  0  0  0  0  0
   -3.3738  -10.2226   25.6663 C   0  0  0  0  0  0  0  0  0  0  0  0
   -2.6401  -10.1168   26.6092 O   0  0  0  0  0  0  0  0  0  0  0  0
   -3.4104   -9.4881   24.4070 N   0  0  0  0  0  0  0  0  0  0  0  0
   -2.5952   -8.2833   23.9240 C   0  0  0  0  0  0  0  0  0  0  0  0
   -2.1434   -8.2683   22.4278 C   0  0  0  0  0  0  0  0  0  0  0  0
   -1.0977   -7.2346   21.9568 C   0  0  0  0  0  0  0  0  0  0  0  0
   -0.5588   -6.1054   22.5477 C   0  0  0  0  0  0  0  0  0  0  0  0
    0.2288   -5.5056   21.5906 N   0  0  0  0  0  0  0  0  0  0  0  0
    0.1981   -6.2953   20.4812 C   0  0  0  0  0  0  0  0  0  0  0  0
   -0.5777   -7.3386   20.6711 N   0  0  0  0  0  0  0  0  0  0  0  0
   -3.4401   -7.0258   24.3007 C   0  0  0  0  0  0  0  0  0  0  0  0
   -3.8172   -6.2753   23.4492 O   0  0  0  0  0  0  0  0  0  0  0  0
   -3.6009   -6.9805   25.7329 N   0  0  0  0  0  0  0  0  0  0  0  0
   -4.3385   -6.0778   26.5679 C   0  0  0  0  0  0  0  0  0  0  0  0
   -5.0590  -12.1131   24.9264 C   0  0  0  0  0  0  0  0  0  0  0  0
   -5.9374  -13.1457   25.1716 N   0  0  0  0  0  0  0  0  0  0  0  0
  -10.1436  -15.3475   25.6578 H   0  0  0  0  0  0  0  0  0  0  0  0
   -9.7680  -14.5205   27.1862 H   0  0  0  0  0  0  0  0  0  0  0  0
   -9.1039  -16.1152   26.8847 H   0  0  0  0  0  0  0  0  0  0  0  0
   -8.4386  -13.5355   25.3867 H   0  0  0  0  0  0  0  0  0  0  0  0
   -7.7784  -15.1358   24.9342 H   0  0  0  0  0  0  0  0  0  0  0  0
   -5.7549  -13.1362   28.5393 H   0  0  0  0  0  0  0  0  0  0  0  0
   -4.1712  -11.2927   28.0556 H   0  0  0  0  0  0  0  0  0  0  0  0
   -4.2209   -9.7862   23.8725 H   0  0  0  0  0  0  0  0  0  0  0  0
   -1.6938   -8.2668   24.5497 H   0  0  0  0  0  0  0  0  0  0  0  0
   -1.7180   -9.2492   22.1870 H   0  0  0  0  0  0  0  0  0  0  0  0
   -3.0270   -8.1558   21.7863 H   0  0  0  0  0  0  0  0  0  0  0  0
   -0.7043   -5.6495   23.5161 H   0  0  0  0  0  0  0  0  0  0  0  0
    0.7568   -4.6496   21.6921 H   0  0  0  0  0  0  0  0  0  0  0  0
    0.7512   -6.0688   19.5799 H   0  0  0  0  0  0  0  0  0  0  0  0
   -3.0757   -7.7453   26.1504 H   0  0  0  0  0  0  0  0  0  0  0  0
   -5.0730   -6.6531   27.1358 H   0  0  0  0  0  0  0  0  0  0  0  0
   -4.8416   -5.3295   25.9515 H   0  0  0  0  0  0  0  0  0  0  0  0
   -3.6415   -5.5927   27.2547 H   0  0  0  0  0  0  0  0  0  0  0  0
   -4.8999  -11.9318   23.8675 H   0  0  0  0  0  0  0  0  0  0  0  0
  1  2  1  0
  2  3  1  0
  3  4  1  0
  4  5  2  0
  5  6  1  0
  6  7  2  0
  7  8  1  0
  8  9  2  0
  8 10  1  0
 10 11  1  0
 11 12  1  0
 12 13  1  0
 13 14  2  0
 14 15  1  0
 15 16  1  0
 16 17  2  0
 11 18  1  0
 18 19  2  0
 18 20  1  0
 20 21  1  0
  7 22  1  0
 22 23  2  0
 23  4  1  0
 17 13  1  0
  1 24  1  0
  1 25  1  0
  1 26  1  0
  2 27  1  0
  2 28  1  0
  5 29  1  0
  6 30  1  0
 10 31  1  0
 11 32  1  0
 12 33  1  0
 12 34  1  0
 14 35  1  0
 15 36  1  0
 16 37  1  0
 20 38  1  0
 21 39  1  0
 21 40  1  0
 21 41  1  0
 22 42  1  0
M  END
>  <Energy>  (510) 
38.073129859706803

>  <compound_id>  (510) 
52677

>  <target_id>  (510) 
1

>  <reference_id>  (510) 
114

>  <inspiration_ids>  (510) 
[82, 114]

>  <energy_score>  (510) 
-19.91309928682267

>  <distance_score>  (510) 
15.717092784306692

>  <path>  (510) 
/opt/xchem-fragalysis-2/maxwin/BulkDock/SCRATCH/511025/C52677-P114/C52677-P114.minimised.mol

>  <scratch_subdir>  (510) 
/opt/xchem-fragalysis-2/maxwin/BulkDock/SCRATCH/511025/C52677-P114

>  <fragmenstein_runtime>  (510) 
43.19147300720215

>  <fragmenstein_outcome>  (510) 
too moved

>  <fragmenstein_mode>  (510) 
expansion

>  <fragmenstein_error>  (510) 


$$$$
C52678-P82
     RDKit          3D

 42 44  0  0  0  0  0  0  0  0999 V2000
    4.8023  -14.8550   25.1821 C   0  0  0  0  0  0  0  0  0  0  0  0
    3.6816  -14.1855   25.1180 N   0  0  0  0  0  0  0  0  0  0  0  0
    2.6974  -13.8663   26.1591 C   0  0  0  0  0  0  0  0  0  0  0  0
    2.7245  -14.0695   27.3129 O   0  0  0  0  0  0  0  0  0  0  0  0
    1.4810  -13.0040   25.4343 C   0  0  0  0  0  0  0  0  0  0  0  0
    2.4343  -12.1860   23.7351 C   0  0  0  0  0  0  0  0  0  0  0  0
    3.7413  -10.9995   22.7623 C   0  0  0  0  0  0  0  0  0  0  0  0
    4.0397   -9.5555   22.6833 C   0  0  0  0  0  0  0  0  0  0  0  0
    5.0684   -9.2765   21.8168 N   0  0  0  0  0  0  0  0  0  0  0  0
    5.3680  -10.4276   21.2049 C   0  0  0  0  0  0  0  0  0  0  0  0
    4.5393  -11.3784   21.6199 N   0  0  0  0  0  0  0  0  0  0  0  0
   -0.4386  -13.5382   25.8559 N   0  0  0  0  0  0  0  0  0  0  0  0
   -1.2316  -14.7796   27.3441 C   0  0  0  0  0  0  0  0  0  0  0  0
   -0.4357  -15.1232   28.0510 O   0  0  0  0  0  0  0  0  0  0  0  0
   -2.5273  -15.2487   27.8606 C   0  0  0  0  0  0  0  0  0  0  0  0
   -2.4891  -14.8349   29.2330 C   0  0  0  0  0  0  0  0  0  0  0  0
   -2.7645  -15.5680   30.4565 N   0  0  0  0  0  0  0  0  0  0  0  0
   -3.6552  -16.5361   30.5848 C   0  0  0  0  0  0  0  0  0  0  0  0
   -4.4951  -16.4786   29.5731 C   0  0  0  0  0  0  0  0  0  0  0  0
   -6.0111  -16.9625   29.7331 C   0  0  0  0  0  0  0  0  0  0  0  0
   -6.7314  -16.7565   31.0443 C   0  0  0  0  0  0  0  0  0  0  0  0
   -7.1074  -15.9273   29.8621 C   0  0  0  0  0  0  0  0  0  0  0  0
   -3.5151  -16.3620   28.1720 C   0  0  0  0  0  0  0  0  0  0  0  0
    4.9166  -15.4297   24.2730 H   0  0  0  0  0  0  0  0  0  0  0  0
    5.3969  -14.0094   25.4809 H   0  0  0  0  0  0  0  0  0  0  0  0
    4.4479  -15.3903   26.0468 H   0  0  0  0  0  0  0  0  0  0  0  0
    3.3126  -13.9524   24.2413 H   0  0  0  0  0  0  0  0  0  0  0  0
    1.3763  -12.0877   26.0184 H   0  0  0  0  0  0  0  0  0  0  0  0
    2.7442  -13.0211   23.1418 H   0  0  0  0  0  0  0  0  0  0  0  0
    3.3958  -12.3745   24.1239 H   0  0  0  0  0  0  0  0  0  0  0  0
    3.6119   -8.6886   23.1639 H   0  0  0  0  0  0  0  0  0  0  0  0
    5.4462   -8.3627   21.6108 H   0  0  0  0  0  0  0  0  0  0  0  0
    6.1141  -10.5361   20.4296 H   0  0  0  0  0  0  0  0  0  0  0  0
   -1.1622  -13.3211   25.1973 H   0  0  0  0  0  0  0  0  0  0  0  0
   -2.5370  -13.7839   29.4655 H   0  0  0  0  0  0  0  0  0  0  0  0
   -3.7505  -16.9926   31.5697 H   0  0  0  0  0  0  0  0  0  0  0  0
   -6.2958  -17.8716   29.2098 H   0  0  0  0  0  0  0  0  0  0  0  0
   -6.2100  -16.3219   31.8798 H   0  0  0  0  0  0  0  0  0  0  0  0
   -7.4332  -17.4803   31.4058 H   0  0  0  0  0  0  0  0  0  0  0  0
   -6.8412  -14.8766   29.8874 H   0  0  0  0  0  0  0  0  0  0  0  0
   -8.0519  -16.1289   29.3721 H   0  0  0  0  0  0  0  0  0  0  0  0
   -3.4189  -17.2155   27.4977 H   0  0  0  0  0  0  0  0  0  0  0  0
  1  2  1  0
  2  3  1  0
  3  4  2  0
  3  5  1  0
  5  6  1  0
  6  7  1  0
  7  8  2  0
  8  9  1  0
  9 10  1  0
 10 11  2  0
  5 12  1  0
 12 13  1  0
 13 14  2  0
 13 15  1  0
 15 16  2  0
 16 17  1  0
 17 18  2  0
 18 19  1  0
 19 20  1  0
 20 21  1  0
 21 22  1  0
 19 23  2  0
 11  7  1  0
 23 15  1  0
 22 20  1  0
  1 24  1  0
  1 25  1  0
  1 26  1  0
  2 27  1  0
  5 28  1  0
  6 29  1  0
  6 30  1  0
  8 31  1  0
  9 32  1  0
 10 33  1  0
 12 34  1  0
 16 35  1  0
 18 36  1  0
 20 37  1  0
 21 38  1  0
 21 39  1  0
 22 40  1  0
 22 41  1  0
 23 42  1  0
M  END
>  <Energy>  (511) 
851.19721755745707

>  <compound_id>  (511) 
52678

>  <target_id>  (511) 
1

>  <reference_id>  (511) 
82

>  <inspiration_ids>  (511) 
[82, 114]

>  <energy_score>  (511) 
759.1001594340096

>  <distance_score>  (511) 
12.592308132967617

>  <path>  (511) 
/opt/xchem-fragalysis-2/maxwin/BulkDock/SCRATCH/511025/C52678-P82/C52678-P82.minimised.mol

>  <scratch_subdir>  (511) 
/opt/xchem-fragalysis-2/maxwin/BulkDock/SCRATCH/511025/C52678-P82

>  <fragmenstein_runtime>  (511) 
25.269145011901855

>  <fragmenstein_outcome>  (511) 
too moved

>  <fragmenstein_mode>  (511) 
expansion

>  <fragmenstein_error>  (511) 


$$$$
C52678-P114
     RDKit          3D

 42 44  0  0  0  0  0  0  0  0999 V2000
   -5.4499  -17.0932   21.0713 C   0  0  0  0  0  0  0  0  0  0  0  0
   -3.8846  -16.3879   21.8376 N   0  0  0  0  0  0  0  0  0  0  0  0
   -3.5557  -15.5568   23.4615 C   0  0  0  0  0  0  0  0  0  0  0  0
   -4.4921  -15.3435   24.0879 O   0  0  0  0  0  0  0  0  0  0  0  0
   -1.8989  -15.1081   24.5302 C   0  0  0  0  0  0  0  0  0  0  0  0
   -0.4018  -14.2333   23.8211 C   0  0  0  0  0  0  0  0  0  0  0  0
    1.3782  -14.6385   23.3141 C   0  0  0  0  0  0  0  0  0  0  0  0
    2.8232  -14.1297   23.3037 C   0  0  0  0  0  0  0  0  0  0  0  0
    3.2271  -14.0262   21.6964 N   0  0  0  0  0  0  0  0  0  0  0  0
    2.2331  -14.7718   20.7184 C   0  0  0  0  0  0  0  0  0  0  0  0
    1.0535  -15.1305   21.5676 N   0  0  0  0  0  0  0  0  0  0  0  0
   -2.3728  -14.8963   26.3370 N   0  0  0  0  0  0  0  0  0  0  0  0
   -2.7290  -16.1784   27.7148 C   0  0  0  0  0  0  0  0  0  0  0  0
   -2.5263  -17.3092   27.4403 O   0  0  0  0  0  0  0  0  0  0  0  0
   -3.6104  -16.0721   29.5622 C   0  0  0  0  0  0  0  0  0  0  0  0
   -3.1625  -16.4532   30.9505 C   0  0  0  0  0  0  0  0  0  0  0  0
   -3.7590  -17.1112   32.1314 N   0  0  0  0  0  0  0  0  0  0  0  0
   -5.0989  -17.3277   32.1100 C   0  0  0  0  0  0  0  0  0  0  0  0
   -5.8637  -16.8600   31.0446 C   0  0  0  0  0  0  0  0  0  0  0  0
   -7.3420  -16.7381   31.0783 C   0  0  0  0  0  0  0  0  0  0  0  0
   -7.9908  -16.3684   32.3965 C   0  0  0  0  0  0  0  0  0  0  0  0
   -8.1079  -15.4513   31.2217 C   0  0  0  0  0  0  0  0  0  0  0  0
   -5.1577  -16.3738   29.8564 C   0  0  0  0  0  0  0  0  0  0  0  0
   -5.8703  -17.8165   21.7969 H   0  0  0  0  0  0  0  0  0  0  0  0
   -5.1199  -17.6935   20.1903 H   0  0  0  0  0  0  0  0  0  0  0  0
   -6.2981  -16.5462   20.6203 H   0  0  0  0  0  0  0  0  0  0  0  0
   -2.9972  -16.4521   21.3248 H   0  0  0  0  0  0  0  0  0  0  0  0
   -1.8486  -16.1266   24.6720 H   0  0  0  0  0  0  0  0  0  0  0  0
   -0.8212  -14.6872   22.8671 H   0  0  0  0  0  0  0  0  0  0  0  0
   -0.3425  -13.4274   23.1315 H   0  0  0  0  0  0  0  0  0  0  0  0
    3.2039  -13.2870   23.8535 H   0  0  0  0  0  0  0  0  0  0  0  0
    3.6914  -13.2265   21.3048 H   0  0  0  0  0  0  0  0  0  0  0  0
    2.4397  -14.7768   19.6456 H   0  0  0  0  0  0  0  0  0  0  0  0
   -2.6602  -14.0144   26.6525 H   0  0  0  0  0  0  0  0  0  0  0  0
   -2.2824  -15.9286   31.3581 H   0  0  0  0  0  0  0  0  0  0  0  0
   -5.5310  -17.7839   32.9926 H   0  0  0  0  0  0  0  0  0  0  0  0
   -7.7749  -17.2734   30.2574 H   0  0  0  0  0  0  0  0  0  0  0  0
   -7.3722  -16.0508   33.2307 H   0  0  0  0  0  0  0  0  0  0  0  0
   -8.8250  -16.9352   32.7716 H   0  0  0  0  0  0  0  0  0  0  0  0
   -7.5606  -14.5194   31.1880 H   0  0  0  0  0  0  0  0  0  0  0  0
   -9.0821  -15.3700   30.7503 H   0  0  0  0  0  0  0  0  0  0  0  0
   -5.9361  -16.0180   29.1862 H   0  0  0  0  0  0  0  0  0  0  0  0
  1  2  1  0
  2  3  1  0
  3  4  2  0
  3  5  1  0
  5  6  1  0
  6  7  1  0
  7  8  2  0
  8  9  1  0
  9 10  1  0
 10 11  2  0
  5 12  1  0
 12 13  1  0
 13 14  2  0
 13 15  1  0
 15 16  2  0
 16 17  1  0
 17 18  2  0
 18 19  1  0
 19 20  1  0
 20 21  1  0
 21 22  1  0
 19 23  2  0
 11  7  1  0
 23 15  1  0
 22 20  1  0
  1 24  1  0
  1 25  1  0
  1 26  1  0
  2 27  1  0
  5 28  1  0
  6 29  1  0
  6 30  1  0
  8 31  1  0
  9 32  1  0
 10 33  1  0
 12 34  1  0
 16 35  1  0
 18 36  1  0
 20 37  1  0
 21 38  1  0
 21 39  1  0
 22 40  1  0
 22 41  1  0
 23 42  1  0
M  END
>  <Energy>  (512) 
833.09800540163985

>  <compound_id>  (512) 
52678

>  <target_id>  (512) 
1

>  <reference_id>  (512) 
114

>  <inspiration_ids>  (512) 
[82, 114]

>  <energy_score>  (512) 
741.0009472781808

>  <distance_score>  (512) 
13.761438104000295

>  <path>  (512) 
/opt/xchem-fragalysis-2/maxwin/BulkDock/SCRATCH/511025/C52678-P114/C52678-P114.minimised.mol

>  <scratch_subdir>  (512) 
/opt/xchem-fragalysis-2/maxwin/BulkDock/SCRATCH/511025/C52678-P114

>  <fragmenstein_runtime>  (512) 
28.418466329574585

>  <fragmenstein_outcome>  (512) 
too moved

>  <fragmenstein_mode>  (512) 
expansion

>  <fragmenstein_error>  (512) 


$$$$
C51677-P7
     RDKit          3D

 50 54  0  0  0  0  0  0  0  0999 V2000
   -0.9531   -1.9810   34.5225 O   0  0  0  0  0  0  0  0  0  0  0  0
   -1.5996   -1.6952   33.6038 C   0  0  0  0  0  0  0  0  0  0  0  0
   -1.1498   -2.1487   32.2508 C   0  0  0  0  0  0  0  0  0  0  0  0
   -1.2086   -1.3037   31.1429 C   0  0  0  0  0  0  0  0  0  0  0  0
   -0.8443   -1.7624   29.8703 C   0  0  0  0  0  0  0  0  0  0  0  0
   -0.4869   -3.1098   29.7453 C   0  0  0  0  0  0  0  0  0  0  0  0
   -0.1978   -3.8514   28.6234 N   0  0  0  0  0  0  0  0  0  0  0  0
   -0.2363   -5.1975   28.9243 C   0  0  0  0  0  0  0  0  0  0  0  0
   -0.1478   -5.2842   30.3038 C   0  0  0  0  0  0  0  0  0  0  0  0
   -0.4080   -3.9759   30.8270 C   0  0  0  0  0  0  0  0  0  0  0  0
   -0.6983   -3.4739   32.1134 C   0  0  0  0  0  0  0  0  0  0  0  0
   -0.0565   -6.5171   31.1189 C   0  0  0  0  0  0  0  0  0  0  0  0
   -0.9427   -7.6503   30.6247 C   0  0  0  0  0  0  0  0  0  0  0  0
   -0.5103   -8.4243   29.3701 C   0  0  0  0  0  0  0  0  0  0  0  0
   -0.1595   -7.6701   28.0877 C   0  0  0  0  0  0  0  0  0  0  0  0
   -0.5366   -6.2186   27.8727 C   0  0  0  0  0  0  0  0  0  0  0  0
   -2.9912   -0.9647   33.4696 N   0  0  0  0  0  0  0  0  0  0  0  0
   -3.7449   -0.6602   34.4947 C   0  0  0  0  0  0  0  0  0  0  0  0
   -5.1870   -1.5354   34.2217 C   0  0  0  0  0  0  0  0  0  0  0  0
   -5.4508   -0.7965   35.4136 C   0  0  0  0  0  0  0  0  0  0  0  0
   -6.7314   -0.0711   35.5735 C   0  0  0  0  0  0  0  0  0  0  0  0
   -7.4969    0.0981   36.7140 C   0  0  0  0  0  0  0  0  0  0  0  0
   -8.5858    0.8899   36.3207 C   0  0  0  0  0  0  0  0  0  0  0  0
   -8.5224    1.2128   35.0301 N   0  0  0  0  0  0  0  0  0  0  0  0
   -7.4312    0.5652   34.5794 N   0  0  0  0  0  0  0  0  0  0  0  0
   -4.2016   -0.0469   34.7055 C   0  0  0  0  0  0  0  0  0  0  0  0
   -1.5421   -0.2759   31.2620 H   0  0  0  0  0  0  0  0  0  0  0  0
   -0.8980   -1.1096   29.0048 H   0  0  0  0  0  0  0  0  0  0  0  0
   -0.2176   -3.4560   27.6964 H   0  0  0  0  0  0  0  0  0  0  0  0
   -0.6691   -4.1237   32.9846 H   0  0  0  0  0  0  0  0  0  0  0  0
   -0.3630   -6.2968   32.1489 H   0  0  0  0  0  0  0  0  0  0  0  0
    0.9919   -6.7800   31.1806 H   0  0  0  0  0  0  0  0  0  0  0  0
   -1.0464   -8.3654   31.4474 H   0  0  0  0  0  0  0  0  0  0  0  0
   -1.9435   -7.2537   30.4854 H   0  0  0  0  0  0  0  0  0  0  0  0
    0.1913   -9.2017   29.6827 H   0  0  0  0  0  0  0  0  0  0  0  0
   -1.1242   -9.2374   29.0456 H   0  0  0  0  0  0  0  0  0  0  0  0
   -0.5289   -8.2193   27.2193 H   0  0  0  0  0  0  0  0  0  0  0  0
    0.8789   -7.8182   27.8971 H   0  0  0  0  0  0  0  0  0  0  0  0
   -1.6063   -6.2137   27.6862 H   0  0  0  0  0  0  0  0  0  0  0  0
   -0.0870   -5.8934   26.9305 H   0  0  0  0  0  0  0  0  0  0  0  0
   -2.8457   -0.6765   35.5069 H   0  0  0  0  0  0  0  0  0  0  0  0
   -3.4761   -1.7784   34.9443 H   0  0  0  0  0  0  0  0  0  0  0  0
   -5.6814   -1.2408   33.2854 H   0  0  0  0  0  0  0  0  0  0  0  0
   -5.0918   -2.6209   34.3033 H   0  0  0  0  0  0  0  0  0  0  0  0
   -5.1436   -1.2986   36.3416 H   0  0  0  0  0  0  0  0  0  0  0  0
   -7.2818   -0.2806   37.7042 H   0  0  0  0  0  0  0  0  0  0  0  0
   -9.4070    1.2610   36.9205 H   0  0  0  0  0  0  0  0  0  0  0  0
   -7.2150    0.6389   33.5867 H   0  0  0  0  0  0  0  0  0  0  0  0
   -4.7189    0.7729   33.9505 H   0  0  0  0  0  0  0  0  0  0  0  0
   -3.7335    0.8695   35.4067 H   0  0  0  0  0  0  0  0  0  0  0  0
  1  2  2  0
  2  3  1  0
  3  4  2  0
  4  5  1  0
  5  6  2  0
  6  7  1  0
  7  8  1  0
  8  9  2  0
  9 10  1  0
 10 11  2  0
  9 12  1  0
 12 13  1  0
 13 14  1  0
 14 15  1  0
 15 16  1  0
  2 17  1  0
 17 18  1  0
 18 19  1  0
 19 20  1  0
 20 21  1  0
 21 22  2  0
 22 23  1  0
 23 24  2  0
 24 25  1  0
 20 26  1  0
 11  3  1  0
 26 17  1  0
 10  6  1  0
 25 21  1  0
 16  8  1  0
  4 27  1  0
  5 28  1  0
  7 29  1  0
 11 30  1  0
 12 31  1  0
 12 32  1  0
 13 33  1  0
 13 34  1  0
 14 35  1  0
 14 36  1  0
 15 37  1  0
 15 38  1  0
 16 39  1  0
 16 40  1  0
 18 41  1  0
 18 42  1  0
 19 43  1  0
 19 44  1  0
 20 45  1  0
 22 46  1  0
 23 47  1  0
 25 48  1  0
 26 49  1  0
 26 50  1  0
M  END
>  <Energy>  (513) 
827.7227339942948

>  <compound_id>  (513) 
51677

>  <target_id>  (513) 
1

>  <reference_id>  (513) 
7

>  <inspiration_ids>  (513) 
[7, 40]

>  <energy_score>  (513) 
727.2302542926788

>  <distance_score>  (513) 
4.198030264455318

>  <path>  (513) 
/opt/xchem-fragalysis-2/maxwin/BulkDock/SCRATCH/511025/C51677-P7/C51677-P7.minimised.mol

>  <scratch_subdir>  (513) 
/opt/xchem-fragalysis-2/maxwin/BulkDock/SCRATCH/511025/C51677-P7

>  <fragmenstein_runtime>  (513) 
13.26268482208252

>  <fragmenstein_outcome>  (513) 
too moved

>  <fragmenstein_mode>  (513) 
expansion

>  <fragmenstein_error>  (513) 


$$$$
C51677-P40
     RDKit          3D

 50 54  0  0  0  0  0  0  0  0999 V2000
   -1.7571   -2.5324   33.8448 O   0  0  0  0  0  0  0  0  0  0  0  0
   -2.1209   -1.8352   33.0091 C   0  0  0  0  0  0  0  0  0  0  0  0
   -1.3326   -1.8286   31.7235 C   0  0  0  0  0  0  0  0  0  0  0  0
   -1.2684   -0.6889   30.9255 C   0  0  0  0  0  0  0  0  0  0  0  0
   -0.4782   -0.6511   29.7717 C   0  0  0  0  0  0  0  0  0  0  0  0
    0.2853   -1.7800   29.4641 C   0  0  0  0  0  0  0  0  0  0  0  0
    1.1885   -1.9723   28.4460 N   0  0  0  0  0  0  0  0  0  0  0  0
    1.8274   -3.1752   28.6007 C   0  0  0  0  0  0  0  0  0  0  0  0
    1.1693   -3.8615   29.6123 C   0  0  0  0  0  0  0  0  0  0  0  0
    0.2508   -2.9469   30.2227 C   0  0  0  0  0  0  0  0  0  0  0  0
   -0.5857   -2.9759   31.3655 C   0  0  0  0  0  0  0  0  0  0  0  0
    1.4341   -5.2703   30.0162 C   0  0  0  0  0  0  0  0  0  0  0  0
    1.8978   -6.1098   28.8238 C   0  0  0  0  0  0  0  0  0  0  0  0
    3.3862   -5.9731   28.4911 C   0  0  0  0  0  0  0  0  0  0  0  0
    3.9327   -4.5418   28.4591 C   0  0  0  0  0  0  0  0  0  0  0  0
    3.0093   -3.5450   27.7598 C   0  0  0  0  0  0  0  0  0  0  0  0
   -3.3914   -0.8697   32.8744 N   0  0  0  0  0  0  0  0  0  0  0  0
   -4.5057   -0.6136   33.5906 C   0  0  0  0  0  0  0  0  0  0  0  0
   -5.5677   -1.9136   33.5063 C   0  0  0  0  0  0  0  0  0  0  0  0
   -5.4816   -1.7373   34.9189 C   0  0  0  0  0  0  0  0  0  0  0  0
   -6.7229   -1.3287   35.6418 C   0  0  0  0  0  0  0  0  0  0  0  0
   -6.9140   -0.6058   36.8034 C   0  0  0  0  0  0  0  0  0  0  0  0
   -8.2920   -0.6978   37.0796 C   0  0  0  0  0  0  0  0  0  0  0  0
   -8.9366   -1.4294   36.1713 N   0  0  0  0  0  0  0  0  0  0  0  0
   -7.9840   -1.7352   35.2756 N   0  0  0  0  0  0  0  0  0  0  0  0
   -4.5779   -0.5488   34.3595 C   0  0  0  0  0  0  0  0  0  0  0  0
   -1.7963    0.2127   31.2147 H   0  0  0  0  0  0  0  0  0  0  0  0
   -0.4283    0.2482   29.1652 H   0  0  0  0  0  0  0  0  0  0  0  0
    1.4013   -1.2804   27.7392 H   0  0  0  0  0  0  0  0  0  0  0  0
   -0.6077   -3.8542   32.0045 H   0  0  0  0  0  0  0  0  0  0  0  0
    0.5030   -5.7060   30.3997 H   0  0  0  0  0  0  0  0  0  0  0  0
    2.1652   -5.3011   30.8311 H   0  0  0  0  0  0  0  0  0  0  0  0
    1.3240   -5.8421   27.9330 H   0  0  0  0  0  0  0  0  0  0  0  0
    1.6591   -7.1578   29.0090 H   0  0  0  0  0  0  0  0  0  0  0  0
    3.9805   -6.5471   29.2094 H   0  0  0  0  0  0  0  0  0  0  0  0
    3.5587   -6.4424   27.5141 H   0  0  0  0  0  0  0  0  0  0  0  0
    4.8974   -4.5610   27.9368 H   0  0  0  0  0  0  0  0  0  0  0  0
    4.1465   -4.2068   29.4823 H   0  0  0  0  0  0  0  0  0  0  0  0
    2.6842   -3.9602   26.8029 H   0  0  0  0  0  0  0  0  0  0  0  0
    3.5844   -2.6369   27.5393 H   0  0  0  0  0  0  0  0  0  0  0  0
   -4.9266   -0.5986   32.4648 H   0  0  0  0  0  0  0  0  0  0  0  0
   -4.9264    0.5853   33.1579 H   0  0  0  0  0  0  0  0  0  0  0  0
   -6.5193   -1.6590   33.0228 H   0  0  0  0  0  0  0  0  0  0  0  0
   -5.1030   -2.8124   33.0909 H   0  0  0  0  0  0  0  0  0  0  0  0
   -4.8936   -2.4930   35.4422 H   0  0  0  0  0  0  0  0  0  0  0  0
   -6.1571   -0.1165   37.4014 H   0  0  0  0  0  0  0  0  0  0  0  0
   -8.8427   -0.2828   37.9145 H   0  0  0  0  0  0  0  0  0  0  0  0
   -8.2648   -2.2504   34.4470 H   0  0  0  0  0  0  0  0  0  0  0  0
   -3.7034   -0.7040   35.2164 H   0  0  0  0  0  0  0  0  0  0  0  0
   -4.7413    0.5753   34.8923 H   0  0  0  0  0  0  0  0  0  0  0  0
  1  2  2  0
  2  3  1  0
  3  4  2  0
  4  5  1  0
  5  6  2  0
  6  7  1  0
  7  8  1  0
  8  9  2  0
  9 10  1  0
 10 11  2  0
  9 12  1  0
 12 13  1  0
 13 14  1  0
 14 15  1  0
 15 16  1  0
  2 17  1  0
 17 18  1  0
 18 19  1  0
 19 20  1  0
 20 21  1  0
 21 22  2  0
 22 23  1  0
 23 24  2  0
 24 25  1  0
 20 26  1  0
 11  3  1  0
 26 17  1  0
 10  6  1  0
 25 21  1  0
 16  8  1  0
  4 27  1  0
  5 28  1  0
  7 29  1  0
 11 30  1  0
 12 31  1  0
 12 32  1  0
 13 33  1  0
 13 34  1  0
 14 35  1  0
 14 36  1  0
 15 37  1  0
 15 38  1  0
 16 39  1  0
 16 40  1  0
 18 41  1  0
 18 42  1  0
 19 43  1  0
 19 44  1  0
 20 45  1  0
 22 46  1  0
 23 47  1  0
 25 48  1  0
 26 49  1  0
 26 50  1  0
M  END
>  <Energy>  (514) 
764.31967443233737

>  <compound_id>  (514) 
51677

>  <target_id>  (514) 
1

>  <reference_id>  (514) 
40

>  <inspiration_ids>  (514) 
[7, 40]

>  <energy_score>  (514) 
663.8271947307178

>  <distance_score>  (514) 
4.302526665814603

>  <path>  (514) 
/opt/xchem-fragalysis-2/maxwin/BulkDock/SCRATCH/511025/C51677-P40/C51677-P40.minimised.mol

>  <scratch_subdir>  (514) 
/opt/xchem-fragalysis-2/maxwin/BulkDock/SCRATCH/511025/C51677-P40

>  <fragmenstein_runtime>  (514) 
13.80170726776123

>  <fragmenstein_outcome>  (514) 
too moved

>  <fragmenstein_mode>  (514) 
expansion

>  <fragmenstein_error>  (514) 


$$$$
C54506-P7
     RDKit          3D

 42 45  0  0  0  0  0  0  0  0999 V2000
   -9.0251   -1.9848   35.5872 C   0  0  0  0  0  0  0  0  0  0  0  0
   -8.2989   -0.7456   35.4967 N   0  0  0  0  0  0  0  0  0  0  0  0
   -8.8800    0.2844   36.1394 N   0  0  0  0  0  0  0  0  0  0  0  0
   -8.0202    1.2793   35.9825 C   0  0  0  0  0  0  0  0  0  0  0  0
   -6.8997    0.8933   35.2248 C   0  0  0  0  0  0  0  0  0  0  0  0
   -7.0706   -0.4378   34.8875 C   0  0  0  0  0  0  0  0  0  0  0  0
   -6.1948   -1.4075   34.0145 C   0  0  0  0  0  0  0  0  0  0  0  0
   -4.7975   -1.0103   33.5512 O   0  0  0  0  0  0  0  0  0  0  0  0
   -4.1857   -2.0295   32.7796 C   0  0  0  0  0  0  0  0  0  0  0  0
   -4.8246   -3.0493   32.5125 O   0  0  0  0  0  0  0  0  0  0  0  0
   -2.7726   -1.9698   32.0899 C   0  0  0  0  0  0  0  0  0  0  0  0
   -2.6130   -1.0878   31.0262 C   0  0  0  0  0  0  0  0  0  0  0  0
   -1.6938   -1.3112   29.9624 C   0  0  0  0  0  0  0  0  0  0  0  0
   -0.9815   -2.5139   29.9138 C   0  0  0  0  0  0  0  0  0  0  0  0
   -0.2802   -3.0968   28.8716 N   0  0  0  0  0  0  0  0  0  0  0  0
   -0.1706   -4.4260   29.1702 C   0  0  0  0  0  0  0  0  0  0  0  0
   -0.2422   -4.5559   30.5429 C   0  0  0  0  0  0  0  0  0  0  0  0
   -0.9951   -3.4107   30.9776 C   0  0  0  0  0  0  0  0  0  0  0  0
   -1.8490   -3.0852   32.0930 C   0  0  0  0  0  0  0  0  0  0  0  0
    0.0235   -5.8575   31.2010 C   0  0  0  0  0  0  0  0  0  0  0  0
   -0.6410   -6.9872   30.4122 C   0  0  0  0  0  0  0  0  0  0  0  0
   -0.5848   -6.8749   28.8594 C   0  0  0  0  0  0  0  0  0  0  0  0
   -0.3332   -5.5135   28.1944 C   0  0  0  0  0  0  0  0  0  0  0  0
   -9.7266   -2.0451   34.7618 H   0  0  0  0  0  0  0  0  0  0  0  0
   -8.2676   -2.7557   35.5355 H   0  0  0  0  0  0  0  0  0  0  0  0
   -9.5626   -2.0269   36.5378 H   0  0  0  0  0  0  0  0  0  0  0  0
   -8.2375    2.2428   36.4246 H   0  0  0  0  0  0  0  0  0  0  0  0
   -6.0526    1.5043   34.9434 H   0  0  0  0  0  0  0  0  0  0  0  0
   -6.7738   -1.6160   33.1086 H   0  0  0  0  0  0  0  0  0  0  0  0
   -6.0396   -2.3028   34.6137 H   0  0  0  0  0  0  0  0  0  0  0  0
   -3.2919   -0.2395   30.9357 H   0  0  0  0  0  0  0  0  0  0  0  0
   -1.6758   -0.6239   29.1197 H   0  0  0  0  0  0  0  0  0  0  0  0
   -0.2462   -2.7035   27.9402 H   0  0  0  0  0  0  0  0  0  0  0  0
   -1.8707   -3.8039   32.8986 H   0  0  0  0  0  0  0  0  0  0  0  0
   -0.3317   -5.8619   32.2370 H   0  0  0  0  0  0  0  0  0  0  0  0
    1.1077   -6.0120   31.2301 H   0  0  0  0  0  0  0  0  0  0  0  0
   -1.6888   -7.0342   30.7243 H   0  0  0  0  0  0  0  0  0  0  0  0
   -0.2610   -7.9570   30.7432 H   0  0  0  0  0  0  0  0  0  0  0  0
    0.0711   -7.6217   28.4101 H   0  0  0  0  0  0  0  0  0  0  0  0
   -1.5681   -7.1861   28.5130 H   0  0  0  0  0  0  0  0  0  0  0  0
    0.4174   -5.5088   27.4141 H   0  0  0  0  0  0  0  0  0  0  0  0
   -1.2228   -5.3141   27.6068 H   0  0  0  0  0  0  0  0  0  0  0  0
  1  2  1  0
  2  3  1  0
  3  4  2  0
  4  5  1  0
  5  6  2  0
  6  7  1  0
  7  8  1  0
  8  9  1  0
  9 10  2  0
  9 11  1  0
 11 12  2  0
 12 13  1  0
 13 14  2  0
 14 15  1  0
 15 16  1  0
 16 17  2  0
 17 18  1  0
 18 19  2  0
 17 20  1  0
 20 21  1  0
 21 22  1  0
 22 23  1  0
  6  2  1  0
 19 11  1  0
 18 14  1  0
 23 16  1  0
  1 24  1  0
  1 25  1  0
  1 26  1  0
  4 27  1  0
  5 28  1  0
  7 29  1  0
  7 30  1  0
 12 31  1  0
 13 32  1  0
 15 33  1  0
 19 34  1  0
 20 35  1  0
 20 36  1  0
 21 37  1  0
 21 38  1  0
 22 39  1  0
 22 40  1  0
 23 41  1  0
 23 42  1  0
M  END
>  <Energy>  (515) 
97.685689912905659

>  <compound_id>  (515) 
54506

>  <target_id>  (515) 
1

>  <reference_id>  (515) 
7

>  <inspiration_ids>  (515) 
[7, 40]

>  <energy_score>  (515) 
31.712175568791906

>  <distance_score>  (515) 
4.671774875929417

>  <path>  (515) 
/opt/xchem-fragalysis-2/maxwin/BulkDock/SCRATCH/511025/C54506-P7/C54506-P7.minimised.mol

>  <scratch_subdir>  (515) 
/opt/xchem-fragalysis-2/maxwin/BulkDock/SCRATCH/511025/C54506-P7

>  <fragmenstein_runtime>  (515) 
3.253800630569458

>  <fragmenstein_outcome>  (515) 
too moved

>  <fragmenstein_mode>  (515) 
expansion

>  <fragmenstein_error>  (515) 


$$$$
C54506-P40
     RDKit          3D

 42 45  0  0  0  0  0  0  0  0999 V2000
   -9.3903   -2.3618   35.8038 C   0  0  0  0  0  0  0  0  0  0  0  0
   -8.5987   -1.1595   35.7059 N   0  0  0  0  0  0  0  0  0  0  0  0
   -9.1483   -0.1032   36.3405 N   0  0  0  0  0  0  0  0  0  0  0  0
   -8.3132    0.8927   36.0836 C   0  0  0  0  0  0  0  0  0  0  0  0
   -7.2177    0.4739   35.3125 C   0  0  0  0  0  0  0  0  0  0  0  0
   -7.3880   -0.8745   35.0450 C   0  0  0  0  0  0  0  0  0  0  0  0
   -6.5401   -1.8282   34.1228 C   0  0  0  0  0  0  0  0  0  0  0  0
   -5.1348   -1.3936   33.6803 O   0  0  0  0  0  0  0  0  0  0  0  0
   -4.5655   -2.2418   32.7082 C   0  0  0  0  0  0  0  0  0  0  0  0
   -5.2365   -3.1625   32.2333 O   0  0  0  0  0  0  0  0  0  0  0  0
   -3.1254   -2.1191   32.0588 C   0  0  0  0  0  0  0  0  0  0  0  0
   -3.0409   -1.5636   30.7753 C   0  0  0  0  0  0  0  0  0  0  0  0
   -2.0269   -1.8868   29.8145 C   0  0  0  0  0  0  0  0  0  0  0  0
   -1.1261   -2.9181   30.0977 C   0  0  0  0  0  0  0  0  0  0  0  0
   -0.2165   -3.5847   29.2843 N   0  0  0  0  0  0  0  0  0  0  0  0
    0.2386   -4.6838   29.9597 C   0  0  0  0  0  0  0  0  0  0  0  0
   -0.2556   -4.6334   31.2481 C   0  0  0  0  0  0  0  0  0  0  0  0
   -1.1312   -3.5175   31.3528 C   0  0  0  0  0  0  0  0  0  0  0  0
   -2.0652   -3.0375   32.3441 C   0  0  0  0  0  0  0  0  0  0  0  0
   -0.0291   -5.7638   32.1832 C   0  0  0  0  0  0  0  0  0  0  0  0
   -0.2649   -7.0891   31.4370 C   0  0  0  0  0  0  0  0  0  0  0  0
    0.1640   -7.1108   29.9412 C   0  0  0  0  0  0  0  0  0  0  0  0
    0.9578   -5.8698   29.4507 C   0  0  0  0  0  0  0  0  0  0  0  0
  -10.2343   -2.2871   35.1208 H   0  0  0  0  0  0  0  0  0  0  0  0
   -8.7283   -3.1763   35.5604 H   0  0  0  0  0  0  0  0  0  0  0  0
   -9.7540   -2.4639   36.8298 H   0  0  0  0  0  0  0  0  0  0  0  0
   -8.5288    1.8833   36.4608 H   0  0  0  0  0  0  0  0  0  0  0  0
   -6.4095    1.0903   34.9415 H   0  0  0  0  0  0  0  0  0  0  0  0
   -6.3944   -2.7709   34.6513 H   0  0  0  0  0  0  0  0  0  0  0  0
   -7.1244   -1.9798   33.2123 H   0  0  0  0  0  0  0  0  0  0  0  0
   -3.8456   -0.9058   30.4413 H   0  0  0  0  0  0  0  0  0  0  0  0
   -2.0718   -1.4448   28.8203 H   0  0  0  0  0  0  0  0  0  0  0  0
   -0.1016   -3.3815   28.2993 H   0  0  0  0  0  0  0  0  0  0  0  0
   -2.0160   -3.5051   33.3175 H   0  0  0  0  0  0  0  0  0  0  0  0
   -0.6835   -5.7074   33.0594 H   0  0  0  0  0  0  0  0  0  0  0  0
    1.0054   -5.7263   32.5461 H   0  0  0  0  0  0  0  0  0  0  0  0
   -1.3366   -7.3274   31.4773 H   0  0  0  0  0  0  0  0  0  0  0  0
    0.2255   -7.8924   31.9880 H   0  0  0  0  0  0  0  0  0  0  0  0
    0.7089   -8.0293   29.7141 H   0  0  0  0  0  0  0  0  0  0  0  0
   -0.7636   -7.1931   29.3639 H   0  0  0  0  0  0  0  0  0  0  0  0
    1.9707   -5.8837   29.8675 H   0  0  0  0  0  0  0  0  0  0  0  0
    1.0618   -5.8663   28.3645 H   0  0  0  0  0  0  0  0  0  0  0  0
  1  2  1  0
  2  3  1  0
  3  4  2  0
  4  5  1  0
  5  6  2  0
  6  7  1  0
  7  8  1  0
  8  9  1  0
  9 10  2  0
  9 11  1  0
 11 12  2  0
 12 13  1  0
 13 14  2  0
 14 15  1  0
 15 16  1  0
 16 17  2  0
 17 18  1  0
 18 19  2  0
 17 20  1  0
 20 21  1  0
 21 22  1  0
 22 23  1  0
  6  2  1  0
 19 11  1  0
 18 14  1  0
 23 16  1  0
  1 24  1  0
  1 25  1  0
  1 26  1  0
  4 27  1  0
  5 28  1  0
  7 29  1  0
  7 30  1  0
 12 31  1  0
 13 32  1  0
 15 33  1  0
 19 34  1  0
 20 35  1  0
 20 36  1  0
 21 37  1  0
 21 38  1  0
 22 39  1  0
 22 40  1  0
 23 41  1  0
 23 42  1  0
M  END
>  <Energy>  (516) 
87.955168166252392

>  <compound_id>  (516) 
54506

>  <target_id>  (516) 
1

>  <reference_id>  (516) 
40

>  <inspiration_ids>  (516) 
[7, 40]

>  <energy_score>  (516) 
21.981653822134376

>  <distance_score>  (516) 
4.563040145165116

>  <path>  (516) 
/opt/xchem-fragalysis-2/maxwin/BulkDock/SCRATCH/511025/C54506-P40/C54506-P40.minimised.mol

>  <scratch_subdir>  (516) 
/opt/xchem-fragalysis-2/maxwin/BulkDock/SCRATCH/511025/C54506-P40

>  <fragmenstein_runtime>  (516) 
4.493119478225708

>  <fragmenstein_outcome>  (516) 
too moved

>  <fragmenstein_mode>  (516) 
expansion

>  <fragmenstein_error>  (516) 


$$$$
C54508-P7
     RDKit          3D

 51 54  0  0  0  0  0  0  0  0999 V2000
   -4.7183   -0.1672   37.3550 C   0  0  0  0  0  0  0  0  0  0  0  0
   -5.2751   -0.8404   36.1235 C   0  0  0  0  0  0  0  0  0  0  0  0
   -6.4942   -1.0398   36.0374 O   0  0  0  0  0  0  0  0  0  0  0  0
   -4.2962   -1.2822   35.1028 C   0  0  0  0  0  0  0  0  0  0  0  0
   -2.8750   -1.4395   35.2356 C   0  0  0  0  0  0  0  0  0  0  0  0
   -2.4130   -1.9855   34.0440 C   0  0  0  0  0  0  0  0  0  0  0  0
   -1.0865   -2.5084   33.6327 C   0  0  0  0  0  0  0  0  0  0  0  0
   -0.1649   -1.7500   33.5784 O   0  0  0  0  0  0  0  0  0  0  0  0
   -1.1737   -3.9081   33.2946 N   0  0  0  0  0  0  0  0  0  0  0  0
   -0.1900   -4.8196   32.6885 C   0  0  0  0  0  0  0  0  0  0  0  0
   -0.3610   -4.9390   31.1759 C   0  0  0  0  0  0  0  0  0  0  0  0
   -0.5605   -3.7191   30.5344 C   0  0  0  0  0  0  0  0  0  0  0  0
   -0.4834   -3.6277   29.1735 C   0  0  0  0  0  0  0  0  0  0  0  0
   -0.1137   -4.7716   28.4706 C   0  0  0  0  0  0  0  0  0  0  0  0
    0.6002   -4.6735   27.3341 N   0  0  0  0  0  0  0  0  0  0  0  0
    0.8407   -5.8416   26.6240 C   0  0  0  0  0  0  0  0  0  0  0  0
    0.3940   -7.0201   27.7096 C   0  0  0  0  0  0  0  0  0  0  0  0
   -0.0622   -6.0862   28.9344 C   0  0  0  0  0  0  0  0  0  0  0  0
   -0.1759   -6.1497   30.3838 C   0  0  0  0  0  0  0  0  0  0  0  0
    1.0422   -8.7775   27.9214 C   0  0  0  0  0  0  0  0  0  0  0  0
    2.8345   -9.6522   28.2903 C   0  0  0  0  0  0  0  0  0  0  0  0
    4.8304   -9.2190   27.7115 C   0  0  0  0  0  0  0  0  0  0  0  0
    5.0198   -8.2392   25.9128 C   0  0  0  0  0  0  0  0  0  0  0  0
    3.6295   -7.1639   24.7465 C   0  0  0  0  0  0  0  0  0  0  0  0
    2.3724   -5.6204   25.3109 C   0  0  0  0  0  0  0  0  0  0  0  0
   -3.5244   -1.9479   33.2359 N   0  0  0  0  0  0  0  0  0  0  0  0
   -4.6777   -1.6402   33.8649 N   0  0  0  0  0  0  0  0  0  0  0  0
   -4.1753   -0.8963   37.9623 H   0  0  0  0  0  0  0  0  0  0  0  0
   -5.5393    0.2451   37.9490 H   0  0  0  0  0  0  0  0  0  0  0  0
   -4.0574    0.6556   37.0691 H   0  0  0  0  0  0  0  0  0  0  0  0
   -2.2708   -1.2671   36.1156 H   0  0  0  0  0  0  0  0  0  0  0  0
   -2.0910   -4.2514   33.5456 H   0  0  0  0  0  0  0  0  0  0  0  0
   -0.3359   -5.7981   33.1561 H   0  0  0  0  0  0  0  0  0  0  0  0
    0.8155   -4.4504   32.9148 H   0  0  0  0  0  0  0  0  0  0  0  0
   -0.6587   -2.7867   31.0816 H   0  0  0  0  0  0  0  0  0  0  0  0
   -0.4968   -2.6519   28.6919 H   0  0  0  0  0  0  0  0  0  0  0  0
    1.0466   -3.7945   27.1052 H   0  0  0  0  0  0  0  0  0  0  0  0
    0.0118   -7.0933   30.8893 H   0  0  0  0  0  0  0  0  0  0  0  0
    0.4285   -9.1456   28.7849 H   0  0  0  0  0  0  0  0  0  0  0  0
    0.2836   -9.2701   27.3287 H   0  0  0  0  0  0  0  0  0  0  0  0
    2.8690  -10.1596   29.2611 H   0  0  0  0  0  0  0  0  0  0  0  0
    2.4913  -10.5122   27.7408 H   0  0  0  0  0  0  0  0  0  0  0  0
    5.2983  -10.2020   27.5775 H   0  0  0  0  0  0  0  0  0  0  0  0
    5.4269   -8.7017   28.4585 H   0  0  0  0  0  0  0  0  0  0  0  0
    5.4494   -8.8677   25.1346 H   0  0  0  0  0  0  0  0  0  0  0  0
    6.0664   -7.8749   25.9186 H   0  0  0  0  0  0  0  0  0  0  0  0
    4.4201   -7.0243   23.9649 H   0  0  0  0  0  0  0  0  0  0  0  0
    2.8583   -7.6451   24.1133 H   0  0  0  0  0  0  0  0  0  0  0  0
    2.5601   -4.4299   25.2451 H   0  0  0  0  0  0  0  0  0  0  0  0
    1.7217   -5.8923   24.2910 H   0  0  0  0  0  0  0  0  0  0  0  0
   -3.5658   -2.1810   32.2505 H   0  0  0  0  0  0  0  0  0  0  0  0
  1  2  1  0
  2  3  2  0
  2  4  1  0
  4  5  1  0
  5  6  2  0
  6  7  1  0
  7  8  2  0
  7  9  1  0
  9 10  1  0
 10 11  1  0
 11 12  2  0
 12 13  1  0
 13 14  2  0
 14 15  1  0
 15 16  1  0
 16 17  2  0
 17 18  1  0
 18 19  2  0
 17 20  1  0
 20 21  1  0
 21 22  1  0
 22 23  1  0
 23 24  1  0
 24 25  1  0
  6 26  1  0
 26 27  1  0
 27  4  2  0
 19 11  1  0
 18 14  1  0
 25 16  1  0
  1 28  1  0
  1 29  1  0
  1 30  1  0
  5 31  1  0
  9 32  1  0
 10 33  1  0
 10 34  1  0
 12 35  1  0
 13 36  1  0
 15 37  1  0
 19 38  1  0
 20 39  1  0
 20 40  1  0
 21 41  1  0
 21 42  1  0
 22 43  1  0
 22 44  1  0
 23 45  1  0
 23 46  1  0
 24 47  1  0
 24 48  1  0
 25 49  1  0
 25 50  1  0
 26 51  1  0
M  END
>  <Energy>  (517) 
658.65843101599478

>  <compound_id>  (517) 
54508

>  <target_id>  (517) 
1

>  <reference_id>  (517) 
7

>  <inspiration_ids>  (517) 
[7, 40]

>  <energy_score>  (517) 
578.7284761453143

>  <distance_score>  (517) 
5.616271961357662

>  <path>  (517) 
/opt/xchem-fragalysis-2/maxwin/BulkDock/SCRATCH/511025/C54508-P7/C54508-P7.minimised.mol

>  <scratch_subdir>  (517) 
/opt/xchem-fragalysis-2/maxwin/BulkDock/SCRATCH/511025/C54508-P7

>  <fragmenstein_runtime>  (517) 
14.337454557418823

>  <fragmenstein_outcome>  (517) 
too moved

>  <fragmenstein_mode>  (517) 
expansion

>  <fragmenstein_error>  (517) 


$$$$
C54508-P40
     RDKit          3D

 51 54  0  0  0  0  0  0  0  0999 V2000
  -10.7241    0.5638   37.0146 C   0  0  0  0  0  0  0  0  0  0  0  0
  -10.2219   -0.7845   36.5484 C   0  0  0  0  0  0  0  0  0  0  0  0
  -10.9322   -1.7833   36.7293 O   0  0  0  0  0  0  0  0  0  0  0  0
   -8.8946   -0.8009   35.8742 C   0  0  0  0  0  0  0  0  0  0  0  0
   -8.1200   -1.8894   35.3831 C   0  0  0  0  0  0  0  0  0  0  0  0
   -6.9253   -1.4140   34.7844 C   0  0  0  0  0  0  0  0  0  0  0  0
   -5.7301   -2.2024   34.2300 C   0  0  0  0  0  0  0  0  0  0  0  0
   -5.9091   -3.3573   34.2254 O   0  0  0  0  0  0  0  0  0  0  0  0
   -4.4501   -1.3732   33.8655 N   0  0  0  0  0  0  0  0  0  0  0  0
   -3.0446   -1.8341   33.4993 C   0  0  0  0  0  0  0  0  0  0  0  0
   -2.4730   -2.4821   32.1938 C   0  0  0  0  0  0  0  0  0  0  0  0
   -2.8007   -1.9780   30.9413 C   0  0  0  0  0  0  0  0  0  0  0  0
   -2.0881   -2.3208   29.7665 C   0  0  0  0  0  0  0  0  0  0  0  0
   -1.0114   -3.2099   29.8366 C   0  0  0  0  0  0  0  0  0  0  0  0
   -0.1870   -3.6814   28.8394 N   0  0  0  0  0  0  0  0  0  0  0  0
    0.8368   -4.4102   29.3850 C   0  0  0  0  0  0  0  0  0  0  0  0
    0.6113   -4.4675   30.7555 C   0  0  0  0  0  0  0  0  0  0  0  0
   -0.6057   -3.7574   31.0432 C   0  0  0  0  0  0  0  0  0  0  0  0
   -1.3462   -3.3857   32.2220 C   0  0  0  0  0  0  0  0  0  0  0  0
    1.5718   -4.9762   31.7739 C   0  0  0  0  0  0  0  0  0  0  0  0
    2.7018   -3.9865   32.0886 C   0  0  0  0  0  0  0  0  0  0  0  0
    3.7699   -3.7935   30.9951 C   0  0  0  0  0  0  0  0  0  0  0  0
    3.3552   -2.9162   29.8101 C   0  0  0  0  0  0  0  0  0  0  0  0
    3.0530   -3.6775   28.5084 C   0  0  0  0  0  0  0  0  0  0  0  0
    2.0362   -4.8177   28.6074 C   0  0  0  0  0  0  0  0  0  0  0  0
   -7.1017   -0.0704   34.9334 N   0  0  0  0  0  0  0  0  0  0  0  0
   -8.2194    0.3279   35.5986 N   0  0  0  0  0  0  0  0  0  0  0  0
  -10.8776    1.2222   36.1552 H   0  0  0  0  0  0  0  0  0  0  0  0
  -10.0108    1.0095   37.7132 H   0  0  0  0  0  0  0  0  0  0  0  0
  -11.6802    0.4393   37.5319 H   0  0  0  0  0  0  0  0  0  0  0  0
   -8.4019   -2.9212   35.4748 H   0  0  0  0  0  0  0  0  0  0  0  0
   -4.6137   -0.3991   34.0571 H   0  0  0  0  0  0  0  0  0  0  0  0
   -2.7213   -2.4349   34.3529 H   0  0  0  0  0  0  0  0  0  0  0  0
   -2.4642   -0.9051   33.5945 H   0  0  0  0  0  0  0  0  0  0  0  0
   -3.6083   -1.2515   30.8505 H   0  0  0  0  0  0  0  0  0  0  0  0
   -2.3866   -1.8889   28.8123 H   0  0  0  0  0  0  0  0  0  0  0  0
   -0.2896   -3.4099   27.8705 H   0  0  0  0  0  0  0  0  0  0  0  0
   -0.9913   -3.7411   33.1887 H   0  0  0  0  0  0  0  0  0  0  0  0
    1.0319   -5.1982   32.7027 H   0  0  0  0  0  0  0  0  0  0  0  0
    1.9863   -5.9230   31.4356 H   0  0  0  0  0  0  0  0  0  0  0  0
    2.2846   -3.0115   32.3707 H   0  0  0  0  0  0  0  0  0  0  0  0
    3.2203   -4.3657   32.9791 H   0  0  0  0  0  0  0  0  0  0  0  0
    4.1549   -4.7546   30.6437 H   0  0  0  0  0  0  0  0  0  0  0  0
    4.6182   -3.2937   31.4820 H   0  0  0  0  0  0  0  0  0  0  0  0
    2.5137   -2.2676   30.0804 H   0  0  0  0  0  0  0  0  0  0  0  0
    4.1854   -2.2329   29.5864 H   0  0  0  0  0  0  0  0  0  0  0  0
    2.6973   -2.9456   27.7713 H   0  0  0  0  0  0  0  0  0  0  0  0
    3.9885   -4.0836   28.1034 H   0  0  0  0  0  0  0  0  0  0  0  0
    1.7498   -5.1345   27.5987 H   0  0  0  0  0  0  0  0  0  0  0  0
    2.5036   -5.6918   29.0756 H   0  0  0  0  0  0  0  0  0  0  0  0
   -6.4692    0.6505   34.6111 H   0  0  0  0  0  0  0  0  0  0  0  0
  1  2  1  0
  2  3  2  0
  2  4  1  0
  4  5  1  0
  5  6  2  0
  6  7  1  0
  7  8  2  0
  7  9  1  0
  9 10  1  0
 10 11  1  0
 11 12  2  0
 12 13  1  0
 13 14  2  0
 14 15  1  0
 15 16  1  0
 16 17  2  0
 17 18  1  0
 18 19  2  0
 17 20  1  0
 20 21  1  0
 21 22  1  0
 22 23  1  0
 23 24  1  0
 24 25  1  0
  6 26  1  0
 26 27  1  0
 27  4  2  0
 19 11  1  0
 18 14  1  0
 25 16  1  0
  1 28  1  0
  1 29  1  0
  1 30  1  0
  5 31  1  0
  9 32  1  0
 10 33  1  0
 10 34  1  0
 12 35  1  0
 13 36  1  0
 15 37  1  0
 19 38  1  0
 20 39  1  0
 20 40  1  0
 21 41  1  0
 21 42  1  0
 22 43  1  0
 22 44  1  0
 23 45  1  0
 23 46  1  0
 24 47  1  0
 24 48  1  0
 25 49  1  0
 25 50  1  0
 26 51  1  0
M  END
>  <Energy>  (518) 
75.162252048790421

>  <compound_id>  (518) 
54508

>  <target_id>  (518) 
1

>  <reference_id>  (518) 
40

>  <inspiration_ids>  (518) 
[7, 40]

>  <energy_score>  (518) 
4.468979716848594

>  <distance_score>  (518) 
4.4807598489422515

>  <path>  (518) 
/opt/xchem-fragalysis-2/maxwin/BulkDock/SCRATCH/511025/C54508-P40/C54508-P40.minimised.mol

>  <scratch_subdir>  (518) 
/opt/xchem-fragalysis-2/maxwin/BulkDock/SCRATCH/511025/C54508-P40

>  <fragmenstein_runtime>  (518) 
11.386045694351196

>  <fragmenstein_outcome>  (518) 
too moved

>  <fragmenstein_mode>  (518) 
expansion

>  <fragmenstein_error>  (518) 


$$$$
C51666-P7
     RDKit          3D

 49 52  0  0  0  0  0  0  0  0999 V2000
  -12.2382   -2.5070   37.1497 C   0  0  0  0  0  0  0  0  0  0  0  0
  -11.6115   -1.1713   36.7685 C   0  0  0  0  0  0  0  0  0  0  0  0
  -10.1235   -1.3289   36.4239 C   0  0  0  0  0  0  0  0  0  0  0  0
   -9.3862   -0.1106   36.0825 N   0  0  0  0  0  0  0  0  0  0  0  0
   -9.9538    1.0897   36.3260 N   0  0  0  0  0  0  0  0  0  0  0  0
   -9.0081    1.9682   36.0122 C   0  0  0  0  0  0  0  0  0  0  0  0
   -7.8434    1.3522   35.5273 C   0  0  0  0  0  0  0  0  0  0  0  0
   -8.0999   -0.0074   35.5327 C   0  0  0  0  0  0  0  0  0  0  0  0
   -7.2562   -1.1615   35.1993 C   0  0  0  0  0  0  0  0  0  0  0  0
   -7.6789   -2.2040   35.5967 O   0  0  0  0  0  0  0  0  0  0  0  0
   -6.0153   -0.8421   34.5347 N   0  0  0  0  0  0  0  0  0  0  0  0
   -4.8545   -1.6703   34.2303 C   0  0  0  0  0  0  0  0  0  0  0  0
   -4.1278   -1.6060   32.8968 C   0  0  0  0  0  0  0  0  0  0  0  0
   -4.7361   -1.2776   31.6873 C   0  0  0  0  0  0  0  0  0  0  0  0
   -4.0547   -1.4043   30.4562 C   0  0  0  0  0  0  0  0  0  0  0  0
   -2.7529   -1.9310   30.4507 C   0  0  0  0  0  0  0  0  0  0  0  0
   -1.9026   -2.2334   29.4018 N   0  0  0  0  0  0  0  0  0  0  0  0
   -0.7608   -2.8079   29.8881 C   0  0  0  0  0  0  0  0  0  0  0  0
   -0.8560   -2.8693   31.2632 C   0  0  0  0  0  0  0  0  0  0  0  0
   -2.1073   -2.2963   31.6300 C   0  0  0  0  0  0  0  0  0  0  0  0
   -2.7895   -2.0843   32.8510 C   0  0  0  0  0  0  0  0  0  0  0  0
    0.2240   -3.4491   32.1146 C   0  0  0  0  0  0  0  0  0  0  0  0
    1.2089   -4.2805   31.2685 C   0  0  0  0  0  0  0  0  0  0  0  0
    1.5906   -3.5655   29.9582 C   0  0  0  0  0  0  0  0  0  0  0  0
    0.3673   -3.3092   29.0576 C   0  0  0  0  0  0  0  0  0  0  0  0
  -13.3056   -2.3816   37.3557 H   0  0  0  0  0  0  0  0  0  0  0  0
  -12.1279   -3.2342   36.3401 H   0  0  0  0  0  0  0  0  0  0  0  0
  -11.7631   -2.9194   38.0456 H   0  0  0  0  0  0  0  0  0  0  0  0
  -12.1469   -0.7488   35.9104 H   0  0  0  0  0  0  0  0  0  0  0  0
  -11.7363   -0.4712   37.6028 H   0  0  0  0  0  0  0  0  0  0  0  0
   -9.5970   -1.7603   37.2813 H   0  0  0  0  0  0  0  0  0  0  0  0
  -10.0422   -1.9987   35.5631 H   0  0  0  0  0  0  0  0  0  0  0  0
   -9.2042    3.0221   36.1631 H   0  0  0  0  0  0  0  0  0  0  0  0
   -6.9212    1.8394   35.2486 H   0  0  0  0  0  0  0  0  0  0  0  0
   -6.0258    0.1314   34.2669 H   0  0  0  0  0  0  0  0  0  0  0  0
   -5.1719   -2.7047   34.3786 H   0  0  0  0  0  0  0  0  0  0  0  0
   -4.1371   -1.4361   35.0260 H   0  0  0  0  0  0  0  0  0  0  0  0
   -5.7693   -0.9338   31.6744 H   0  0  0  0  0  0  0  0  0  0  0  0
   -4.5523   -1.1411   29.5271 H   0  0  0  0  0  0  0  0  0  0  0  0
   -2.1345   -2.1384   28.4201 H   0  0  0  0  0  0  0  0  0  0  0  0
   -2.2887   -2.3740   33.7733 H   0  0  0  0  0  0  0  0  0  0  0  0
   -0.2034   -4.0784   32.9032 H   0  0  0  0  0  0  0  0  0  0  0  0
    0.7657   -2.6296   32.6021 H   0  0  0  0  0  0  0  0  0  0  0  0
    0.7545   -5.2498   31.0247 H   0  0  0  0  0  0  0  0  0  0  0  0
    2.1094   -4.4889   31.8571 H   0  0  0  0  0  0  0  0  0  0  0  0
    2.3298   -4.1586   29.4118 H   0  0  0  0  0  0  0  0  0  0  0  0
    2.0698   -2.6088   30.2037 H   0  0  0  0  0  0  0  0  0  0  0  0
    0.6276   -2.5918   28.2722 H   0  0  0  0  0  0  0  0  0  0  0  0
    0.0666   -4.2452   28.5722 H   0  0  0  0  0  0  0  0  0  0  0  0
  1  2  1  0
  2  3  1  0
  3  4  1  0
  4  5  1  0
  5  6  2  0
  6  7  1  0
  7  8  2  0
  8  9  1  0
  9 10  2  0
  9 11  1  0
 11 12  1  0
 12 13  1  0
 13 14  2  0
 14 15  1  0
 15 16  2  0
 16 17  1  0
 17 18  1  0
 18 19  2  0
 19 20  1  0
 20 21  2  0
 19 22  1  0
 22 23  1  0
 23 24  1  0
 24 25  1  0
  8  4  1  0
 21 13  1  0
 20 16  1  0
 25 18  1  0
  1 26  1  0
  1 27  1  0
  1 28  1  0
  2 29  1  0
  2 30  1  0
  3 31  1  0
  3 32  1  0
  6 33  1  0
  7 34  1  0
 11 35  1  0
 12 36  1  0
 12 37  1  0
 14 38  1  0
 15 39  1  0
 17 40  1  0
 21 41  1  0
 22 42  1  0
 22 43  1  0
 23 44  1  0
 23 45  1  0
 24 46  1  0
 24 47  1  0
 25 48  1  0
 25 49  1  0
M  END
>  <Energy>  (519) 
-4.9382394354878958

>  <compound_id>  (519) 
51666

>  <target_id>  (519) 
1

>  <reference_id>  (519) 
7

>  <inspiration_ids>  (519) 
[7, 40]

>  <energy_score>  (519) 
-26.03209328222485

>  <distance_score>  (519) 
5.111312901595052

>  <path>  (519) 
/opt/xchem-fragalysis-2/maxwin/BulkDock/SCRATCH/511025/C51666-P7/C51666-P7.minimised.mol

>  <scratch_subdir>  (519) 
/opt/xchem-fragalysis-2/maxwin/BulkDock/SCRATCH/511025/C51666-P7

>  <fragmenstein_runtime>  (519) 
13.091747045516968

>  <fragmenstein_outcome>  (519) 
too moved

>  <fragmenstein_mode>  (519) 
expansion

>  <fragmenstein_error>  (519) 


$$$$
C51666-P40
     RDKit          3D

 49 52  0  0  0  0  0  0  0  0999 V2000
  -11.3682   -3.1492   37.2930 C   0  0  0  0  0  0  0  0  0  0  0  0
  -10.7733   -2.1158   36.3285 C   0  0  0  0  0  0  0  0  0  0  0  0
   -9.2124   -2.1692   36.1740 C   0  0  0  0  0  0  0  0  0  0  0  0
   -8.5172   -0.9947   35.6075 N   0  0  0  0  0  0  0  0  0  0  0  0
   -9.1027    0.1760   35.9622 N   0  0  0  0  0  0  0  0  0  0  0  0
   -8.2516    1.1077   35.5759 C   0  0  0  0  0  0  0  0  0  0  0  0
   -7.1020    0.5707   34.9784 C   0  0  0  0  0  0  0  0  0  0  0  0
   -7.2403   -0.8052   34.9222 C   0  0  0  0  0  0  0  0  0  0  0  0
   -6.2651   -1.8592   34.3888 C   0  0  0  0  0  0  0  0  0  0  0  0
   -6.6017   -2.9261   34.7328 O   0  0  0  0  0  0  0  0  0  0  0  0
   -4.9639   -1.3980   33.5964 N   0  0  0  0  0  0  0  0  0  0  0  0
   -3.7393   -2.2004   33.1500 C   0  0  0  0  0  0  0  0  0  0  0  0
   -2.6680   -2.1524   31.9943 C   0  0  0  0  0  0  0  0  0  0  0  0
   -2.5144   -1.0525   31.1742 C   0  0  0  0  0  0  0  0  0  0  0  0
   -1.5956   -1.0288   30.0979 C   0  0  0  0  0  0  0  0  0  0  0  0
   -0.7921   -2.1392   29.8180 C   0  0  0  0  0  0  0  0  0  0  0  0
    0.1365   -2.3074   28.8154 N   0  0  0  0  0  0  0  0  0  0  0  0
    0.8038   -3.4713   29.0188 C   0  0  0  0  0  0  0  0  0  0  0  0
    0.1290   -4.1849   29.9948 C   0  0  0  0  0  0  0  0  0  0  0  0
   -0.8283   -3.2890   30.6003 C   0  0  0  0  0  0  0  0  0  0  0  0
   -1.7375   -3.2556   31.7270 C   0  0  0  0  0  0  0  0  0  0  0  0
    0.4726   -5.5928   30.2778 C   0  0  0  0  0  0  0  0  0  0  0  0
    1.7508   -6.0328   29.5293 C   0  0  0  0  0  0  0  0  0  0  0  0
    2.1104   -5.3459   28.2091 C   0  0  0  0  0  0  0  0  0  0  0  0
    2.0556   -3.8361   28.3262 C   0  0  0  0  0  0  0  0  0  0  0  0
  -12.4102   -2.9145   37.5248 H   0  0  0  0  0  0  0  0  0  0  0  0
  -11.3339   -4.1382   36.8392 H   0  0  0  0  0  0  0  0  0  0  0  0
  -10.8115   -3.1712   38.2346 H   0  0  0  0  0  0  0  0  0  0  0  0
  -11.2069   -2.2327   35.3321 H   0  0  0  0  0  0  0  0  0  0  0  0
  -11.0767   -1.1276   36.6914 H   0  0  0  0  0  0  0  0  0  0  0  0
   -8.9164   -3.0161   35.5710 H   0  0  0  0  0  0  0  0  0  0  0  0
   -8.7720   -2.2384   37.1745 H   0  0  0  0  0  0  0  0  0  0  0  0
   -8.4877    2.1495   35.7473 H   0  0  0  0  0  0  0  0  0  0  0  0
   -6.2637    1.1400   34.6044 H   0  0  0  0  0  0  0  0  0  0  0  0
   -4.9443   -0.3893   33.5336 H   0  0  0  0  0  0  0  0  0  0  0  0
   -4.2560   -3.1275   32.9134 H   0  0  0  0  0  0  0  0  0  0  0  0
   -3.1560   -2.2792   34.0723 H   0  0  0  0  0  0  0  0  0  0  0  0
   -3.1358   -0.1721   31.3319 H   0  0  0  0  0  0  0  0  0  0  0  0
   -1.5417   -0.1415   29.4704 H   0  0  0  0  0  0  0  0  0  0  0  0
    0.3408   -1.6138   28.1067 H   0  0  0  0  0  0  0  0  0  0  0  0
   -1.6807   -4.0823   32.4306 H   0  0  0  0  0  0  0  0  0  0  0  0
   -0.3608   -6.2283   29.9555 H   0  0  0  0  0  0  0  0  0  0  0  0
    0.5990   -5.7582   31.3536 H   0  0  0  0  0  0  0  0  0  0  0  0
    2.5993   -5.8667   30.2012 H   0  0  0  0  0  0  0  0  0  0  0  0
    1.6573   -7.0978   29.3134 H   0  0  0  0  0  0  0  0  0  0  0  0
    3.1102   -5.6602   27.8873 H   0  0  0  0  0  0  0  0  0  0  0  0
    1.4254   -5.6742   27.4317 H   0  0  0  0  0  0  0  0  0  0  0  0
    2.1432   -3.3672   27.3452 H   0  0  0  0  0  0  0  0  0  0  0  0
    2.9057   -3.4827   28.9229 H   0  0  0  0  0  0  0  0  0  0  0  0
  1  2  1  0
  2  3  1  0
  3  4  1  0
  4  5  1  0
  5  6  2  0
  6  7  1  0
  7  8  2  0
  8  9  1  0
  9 10  2  0
  9 11  1  0
 11 12  1  0
 12 13  1  0
 13 14  2  0
 14 15  1  0
 15 16  2  0
 16 17  1  0
 17 18  1  0
 18 19  2  0
 19 20  1  0
 20 21  2  0
 19 22  1  0
 22 23  1  0
 23 24  1  0
 24 25  1  0
  8  4  1  0
 21 13  1  0
 20 16  1  0
 25 18  1  0
  1 26  1  0
  1 27  1  0
  1 28  1  0
  2 29  1  0
  2 30  1  0
  3 31  1  0
  3 32  1  0
  6 33  1  0
  7 34  1  0
 11 35  1  0
 12 36  1  0
 12 37  1  0
 14 38  1  0
 15 39  1  0
 17 40  1  0
 21 41  1  0
 22 42  1  0
 22 43  1  0
 23 44  1  0
 23 45  1  0
 24 46  1  0
 24 47  1  0
 25 48  1  0
 25 49  1  0
M  END
>  <Energy>  (520) 
57.191927537922965

>  <compound_id>  (520) 
51666

>  <target_id>  (520) 
1

>  <reference_id>  (520) 
40

>  <inspiration_ids>  (520) 
[7, 40]

>  <energy_score>  (520) 
34.00116015115384

>  <distance_score>  (520) 
4.3796364977782245

>  <path>  (520) 
/opt/xchem-fragalysis-2/maxwin/BulkDock/SCRATCH/511025/C51666-P40/C51666-P40.minimised.mol

>  <scratch_subdir>  (520) 
/opt/xchem-fragalysis-2/maxwin/BulkDock/SCRATCH/511025/C51666-P40

>  <fragmenstein_runtime>  (520) 
6.940917730331421

>  <fragmenstein_outcome>  (520) 
too moved

>  <fragmenstein_mode>  (520) 
expansion

>  <fragmenstein_error>  (520) 


$$$$
C54509-P7
     RDKit          3D

 46 49  0  0  0  0  0  0  0  0999 V2000
   -5.9192   -0.2217   32.4312 O   0  0  0  0  0  0  0  0  0  0  0  0
   -5.4163   -0.8324   33.3064 C   0  0  0  0  0  0  0  0  0  0  0  0
   -6.1920   -0.9890   34.7086 C   0  0  0  0  0  0  0  0  0  0  0  0
   -7.5681   -0.1677   34.8926 C   0  0  0  0  0  0  0  0  0  0  0  0
   -8.5506   -0.6329   35.9545 C   0  0  0  0  0  0  0  0  0  0  0  0
   -9.6178   -1.5642   35.8340 C   0  0  0  0  0  0  0  0  0  0  0  0
  -10.3202   -1.7309   36.9534 N   0  0  0  0  0  0  0  0  0  0  0  0
   -9.7806   -0.8289   37.7838 N   0  0  0  0  0  0  0  0  0  0  0  0
   -8.7155   -0.1634   37.2411 C   0  0  0  0  0  0  0  0  0  0  0  0
   -4.0334   -1.6340   33.3457 N   0  0  0  0  0  0  0  0  0  0  0  0
   -3.0742   -1.9059   32.2919 C   0  0  0  0  0  0  0  0  0  0  0  0
   -3.1995   -1.4109   30.9988 C   0  0  0  0  0  0  0  0  0  0  0  0
   -2.3530   -1.8026   29.9236 C   0  0  0  0  0  0  0  0  0  0  0  0
   -1.4167   -2.8098   30.1482 C   0  0  0  0  0  0  0  0  0  0  0  0
   -0.6518   -3.5483   29.2666 N   0  0  0  0  0  0  0  0  0  0  0  0
   -0.2371   -4.6630   29.9431 C   0  0  0  0  0  0  0  0  0  0  0  0
   -0.3087   -4.4052   31.2917 C   0  0  0  0  0  0  0  0  0  0  0  0
   -1.2032   -3.3106   31.4260 C   0  0  0  0  0  0  0  0  0  0  0  0
   -1.9755   -2.7800   32.5050 C   0  0  0  0  0  0  0  0  0  0  0  0
    0.1457   -5.3361   32.3552 C   0  0  0  0  0  0  0  0  0  0  0  0
   -0.7936   -6.5291   32.4350 C   0  0  0  0  0  0  0  0  0  0  0  0
   -0.7122   -7.5301   31.2857 C   0  0  0  0  0  0  0  0  0  0  0  0
   -0.7381   -7.1361   29.8051 C   0  0  0  0  0  0  0  0  0  0  0  0
    0.1069   -5.9478   29.3366 C   0  0  0  0  0  0  0  0  0  0  0  0
   -5.5031   -0.7104   35.5134 H   0  0  0  0  0  0  0  0  0  0  0  0
   -6.4183   -2.0505   34.8026 H   0  0  0  0  0  0  0  0  0  0  0  0
   -8.0675   -0.1714   33.9201 H   0  0  0  0  0  0  0  0  0  0  0  0
   -7.3011    0.8792   35.0856 H   0  0  0  0  0  0  0  0  0  0  0  0
   -9.9055   -2.1281   34.9600 H   0  0  0  0  0  0  0  0  0  0  0  0
  -10.1800   -0.7236   38.7119 H   0  0  0  0  0  0  0  0  0  0  0  0
   -8.1873    0.5900   37.8090 H   0  0  0  0  0  0  0  0  0  0  0  0
   -3.9437   -2.1155   34.2341 H   0  0  0  0  0  0  0  0  0  0  0  0
   -3.9977   -0.7033   30.7733 H   0  0  0  0  0  0  0  0  0  0  0  0
   -2.5303   -1.4114   28.9250 H   0  0  0  0  0  0  0  0  0  0  0  0
   -0.7045   -3.4444   28.2611 H   0  0  0  0  0  0  0  0  0  0  0  0
   -1.7627   -3.1466   33.5030 H   0  0  0  0  0  0  0  0  0  0  0  0
    0.1566   -4.8168   33.3208 H   0  0  0  0  0  0  0  0  0  0  0  0
    1.1757   -5.6543   32.1620 H   0  0  0  0  0  0  0  0  0  0  0  0
   -0.5827   -7.0712   33.3661 H   0  0  0  0  0  0  0  0  0  0  0  0
   -1.8178   -6.1813   32.5318 H   0  0  0  0  0  0  0  0  0  0  0  0
   -1.4930   -8.2766   31.4666 H   0  0  0  0  0  0  0  0  0  0  0  0
    0.2115   -8.0690   31.4116 H   0  0  0  0  0  0  0  0  0  0  0  0
   -1.7603   -7.0601   29.4673 H   0  0  0  0  0  0  0  0  0  0  0  0
   -0.4186   -8.0143   29.2294 H   0  0  0  0  0  0  0  0  0  0  0  0
    0.0165   -5.8781   28.2477 H   0  0  0  0  0  0  0  0  0  0  0  0
    1.1380   -6.0951   29.6403 H   0  0  0  0  0  0  0  0  0  0  0  0
  1  2  2  0
  2  3  1  0
  3  4  1  0
  4  5  1  0
  5  6  1  0
  6  7  2  0
  7  8  1  0
  8  9  1  0
  2 10  1  0
 10 11  1  0
 11 12  2  0
 12 13  1  0
 13 14  2  0
 14 15  1  0
 15 16  1  0
 16 17  2  0
 17 18  1  0
 18 19  2  0
 17 20  1  0
 20 21  1  0
 21 22  1  0
 22 23  1  0
 23 24  1  0
  9  5  2  0
 19 11  1  0
 18 14  1  0
 24 16  1  0
  3 25  1  0
  3 26  1  0
  4 27  1  0
  4 28  1  0
  6 29  1  0
  8 30  1  0
  9 31  1  0
 10 32  1  0
 12 33  1  0
 13 34  1  0
 15 35  1  0
 19 36  1  0
 20 37  1  0
 20 38  1  0
 21 39  1  0
 21 40  1  0
 22 41  1  0
 22 42  1  0
 23 43  1  0
 23 44  1  0
 24 45  1  0
 24 46  1  0
M  END
>  <Energy>  (521) 
50.070473644268063

>  <compound_id>  (521) 
54509

>  <target_id>  (521) 
1

>  <reference_id>  (521) 
7

>  <inspiration_ids>  (521) 
[7, 40]

>  <energy_score>  (521) 
2.301519573672522

>  <distance_score>  (521) 
4.4570490907428

>  <path>  (521) 
/opt/xchem-fragalysis-2/maxwin/BulkDock/SCRATCH/511025/C54509-P7/C54509-P7.minimised.mol

>  <scratch_subdir>  (521) 
/opt/xchem-fragalysis-2/maxwin/BulkDock/SCRATCH/511025/C54509-P7

>  <fragmenstein_runtime>  (521) 
7.411749362945557

>  <fragmenstein_outcome>  (521) 
too moved

>  <fragmenstein_mode>  (521) 
expansion

>  <fragmenstein_error>  (521) 


$$$$
C54509-P40
     RDKit          3D

 46 49  0  0  0  0  0  0  0  0999 V2000
   -5.6349   -0.4849   32.3181 O   0  0  0  0  0  0  0  0  0  0  0  0
   -5.1937   -1.2156   33.1378 C   0  0  0  0  0  0  0  0  0  0  0  0
   -6.0610   -1.4408   34.5113 C   0  0  0  0  0  0  0  0  0  0  0  0
   -7.2666   -0.3685   34.8478 C   0  0  0  0  0  0  0  0  0  0  0  0
   -8.4814   -0.7746   35.6831 C   0  0  0  0  0  0  0  0  0  0  0  0
   -9.4459    0.0759   36.3097 C   0  0  0  0  0  0  0  0  0  0  0  0
  -10.4991   -0.5811   36.8107 N   0  0  0  0  0  0  0  0  0  0  0  0
  -10.2307   -1.8576   36.5213 N   0  0  0  0  0  0  0  0  0  0  0  0
   -9.0411   -2.0142   35.8710 C   0  0  0  0  0  0  0  0  0  0  0  0
   -3.8594   -2.1177   33.1180 N   0  0  0  0  0  0  0  0  0  0  0  0
   -2.8871   -2.3507   32.0467 C   0  0  0  0  0  0  0  0  0  0  0  0
   -3.0396   -1.7436   30.8099 C   0  0  0  0  0  0  0  0  0  0  0  0
   -2.1981   -2.0121   29.7032 C   0  0  0  0  0  0  0  0  0  0  0  0
   -1.1643   -2.9400   29.8262 C   0  0  0  0  0  0  0  0  0  0  0  0
   -0.2696   -3.3789   28.8788 N   0  0  0  0  0  0  0  0  0  0  0  0
    0.6698   -4.1884   29.4592 C   0  0  0  0  0  0  0  0  0  0  0  0
    0.2922   -4.3544   30.7898 C   0  0  0  0  0  0  0  0  0  0  0  0
   -0.8969   -3.5712   31.0316 C   0  0  0  0  0  0  0  0  0  0  0  0
   -1.7589   -3.2442   32.1547 C   0  0  0  0  0  0  0  0  0  0  0  0
    1.1121   -5.0444   31.8200 C   0  0  0  0  0  0  0  0  0  0  0  0
    2.4343   -4.3100   32.0678 C   0  0  0  0  0  0  0  0  0  0  0  0
    3.2826   -3.9654   30.8251 C   0  0  0  0  0  0  0  0  0  0  0  0
    3.1072   -4.8880   29.6127 C   0  0  0  0  0  0  0  0  0  0  0  0
    1.9062   -4.5675   28.7190 C   0  0  0  0  0  0  0  0  0  0  0  0
   -5.3640   -1.4519   35.3559 H   0  0  0  0  0  0  0  0  0  0  0  0
   -6.5011   -2.4378   34.4137 H   0  0  0  0  0  0  0  0  0  0  0  0
   -7.6449   -0.0229   33.8815 H   0  0  0  0  0  0  0  0  0  0  0  0
   -6.7904    0.4988   35.3221 H   0  0  0  0  0  0  0  0  0  0  0  0
   -9.4233    1.1571   36.3755 H   0  0  0  0  0  0  0  0  0  0  0  0
  -10.9129   -2.5671   36.7772 H   0  0  0  0  0  0  0  0  0  0  0  0
   -8.7291   -2.9778   35.5265 H   0  0  0  0  0  0  0  0  0  0  0  0
   -3.8223   -2.6934   33.9583 H   0  0  0  0  0  0  0  0  0  0  0  0
   -3.8551   -1.0386   30.6501 H   0  0  0  0  0  0  0  0  0  0  0  0
   -2.3942   -1.5210   28.7515 H   0  0  0  0  0  0  0  0  0  0  0  0
   -0.2657   -3.0348   27.9270 H   0  0  0  0  0  0  0  0  0  0  0  0
   -1.5353   -3.6979   33.1170 H   0  0  0  0  0  0  0  0  0  0  0  0
    1.2973   -6.0752   31.5041 H   0  0  0  0  0  0  0  0  0  0  0  0
    0.5622   -5.1152   32.7658 H   0  0  0  0  0  0  0  0  0  0  0  0
    2.2345   -3.3745   32.6072 H   0  0  0  0  0  0  0  0  0  0  0  0
    3.0349   -4.9172   32.7550 H   0  0  0  0  0  0  0  0  0  0  0  0
    4.3364   -3.9836   31.1311 H   0  0  0  0  0  0  0  0  0  0  0  0
    3.0829   -2.9288   30.5244 H   0  0  0  0  0  0  0  0  0  0  0  0
    3.0485   -5.9289   29.9324 H   0  0  0  0  0  0  0  0  0  0  0  0
    4.0091   -4.8237   28.9904 H   0  0  0  0  0  0  0  0  0  0  0  0
    1.6994   -5.4276   28.0720 H   0  0  0  0  0  0  0  0  0  0  0  0
    2.1879   -3.7388   28.0559 H   0  0  0  0  0  0  0  0  0  0  0  0
  1  2  2  0
  2  3  1  0
  3  4  1  0
  4  5  1  0
  5  6  1  0
  6  7  2  0
  7  8  1  0
  8  9  1  0
  2 10  1  0
 10 11  1  0
 11 12  2  0
 12 13  1  0
 13 14  2  0
 14 15  1  0
 15 16  1  0
 16 17  2  0
 17 18  1  0
 18 19  2  0
 17 20  1  0
 20 21  1  0
 21 22  1  0
 22 23  1  0
 23 24  1  0
  9  5  2  0
 19 11  1  0
 18 14  1  0
 24 16  1  0
  3 25  1  0
  3 26  1  0
  4 27  1  0
  4 28  1  0
  6 29  1  0
  8 30  1  0
  9 31  1  0
 10 32  1  0
 12 33  1  0
 13 34  1  0
 15 35  1  0
 19 36  1  0
 20 37  1  0
 20 38  1  0
 21 39  1  0
 21 40  1  0
 22 41  1  0
 22 42  1  0
 23 43  1  0
 23 44  1  0
 24 45  1  0
 24 46  1  0
M  END
>  <Energy>  (522) 
52.438034496950884

>  <compound_id>  (522) 
54509

>  <target_id>  (522) 
1

>  <reference_id>  (522) 
40

>  <inspiration_ids>  (522) 
[7, 40]

>  <energy_score>  (522) 
4.669080426357596

>  <distance_score>  (522) 
4.177180044315515

>  <path>  (522) 
/opt/xchem-fragalysis-2/maxwin/BulkDock/SCRATCH/511025/C54509-P40/C54509-P40.minimised.mol

>  <scratch_subdir>  (522) 
/opt/xchem-fragalysis-2/maxwin/BulkDock/SCRATCH/511025/C54509-P40

>  <fragmenstein_runtime>  (522) 
10.93786072731018

>  <fragmenstein_outcome>  (522) 
too moved

>  <fragmenstein_mode>  (522) 
expansion

>  <fragmenstein_error>  (522) 


$$$$
C51677-P7
     RDKit          3D

 50 54  0  0  0  0  0  0  0  0999 V2000
   -0.9531   -1.9810   34.5225 O   0  0  0  0  0  0  0  0  0  0  0  0
   -1.5996   -1.6952   33.6038 C   0  0  0  0  0  0  0  0  0  0  0  0
   -1.1498   -2.1487   32.2508 C   0  0  0  0  0  0  0  0  0  0  0  0
   -1.2086   -1.3037   31.1429 C   0  0  0  0  0  0  0  0  0  0  0  0
   -0.8443   -1.7624   29.8703 C   0  0  0  0  0  0  0  0  0  0  0  0
   -0.4869   -3.1098   29.7453 C   0  0  0  0  0  0  0  0  0  0  0  0
   -0.1978   -3.8514   28.6234 N   0  0  0  0  0  0  0  0  0  0  0  0
   -0.2363   -5.1975   28.9243 C   0  0  0  0  0  0  0  0  0  0  0  0
   -0.1478   -5.2842   30.3038 C   0  0  0  0  0  0  0  0  0  0  0  0
   -0.4080   -3.9759   30.8270 C   0  0  0  0  0  0  0  0  0  0  0  0
   -0.6983   -3.4739   32.1134 C   0  0  0  0  0  0  0  0  0  0  0  0
   -0.0565   -6.5171   31.1189 C   0  0  0  0  0  0  0  0  0  0  0  0
   -0.9427   -7.6503   30.6247 C   0  0  0  0  0  0  0  0  0  0  0  0
   -0.5103   -8.4243   29.3701 C   0  0  0  0  0  0  0  0  0  0  0  0
   -0.1595   -7.6701   28.0877 C   0  0  0  0  0  0  0  0  0  0  0  0
   -0.5366   -6.2186   27.8727 C   0  0  0  0  0  0  0  0  0  0  0  0
   -2.9912   -0.9647   33.4696 N   0  0  0  0  0  0  0  0  0  0  0  0
   -3.7449   -0.6602   34.4947 C   0  0  0  0  0  0  0  0  0  0  0  0
   -5.1870   -1.5354   34.2217 C   0  0  0  0  0  0  0  0  0  0  0  0
   -5.4508   -0.7965   35.4136 C   0  0  0  0  0  0  0  0  0  0  0  0
   -6.7314   -0.0711   35.5735 C   0  0  0  0  0  0  0  0  0  0  0  0
   -7.4969    0.0981   36.7140 C   0  0  0  0  0  0  0  0  0  0  0  0
   -8.5858    0.8899   36.3207 C   0  0  0  0  0  0  0  0  0  0  0  0
   -8.5224    1.2128   35.0301 N   0  0  0  0  0  0  0  0  0  0  0  0
   -7.4312    0.5652   34.5794 N   0  0  0  0  0  0  0  0  0  0  0  0
   -4.2016   -0.0469   34.7055 C   0  0  0  0  0  0  0  0  0  0  0  0
   -1.5421   -0.2759   31.2620 H   0  0  0  0  0  0  0  0  0  0  0  0
   -0.8980   -1.1096   29.0048 H   0  0  0  0  0  0  0  0  0  0  0  0
   -0.2176   -3.4560   27.6964 H   0  0  0  0  0  0  0  0  0  0  0  0
   -0.6691   -4.1237   32.9846 H   0  0  0  0  0  0  0  0  0  0  0  0
   -0.3630   -6.2968   32.1489 H   0  0  0  0  0  0  0  0  0  0  0  0
    0.9919   -6.7800   31.1806 H   0  0  0  0  0  0  0  0  0  0  0  0
   -1.0464   -8.3654   31.4474 H   0  0  0  0  0  0  0  0  0  0  0  0
   -1.9435   -7.2537   30.4854 H   0  0  0  0  0  0  0  0  0  0  0  0
    0.1913   -9.2017   29.6827 H   0  0  0  0  0  0  0  0  0  0  0  0
   -1.1242   -9.2374   29.0456 H   0  0  0  0  0  0  0  0  0  0  0  0
   -0.5289   -8.2193   27.2193 H   0  0  0  0  0  0  0  0  0  0  0  0
    0.8789   -7.8182   27.8971 H   0  0  0  0  0  0  0  0  0  0  0  0
   -1.6063   -6.2137   27.6862 H   0  0  0  0  0  0  0  0  0  0  0  0
   -0.0870   -5.8934   26.9305 H   0  0  0  0  0  0  0  0  0  0  0  0
   -2.8457   -0.6765   35.5069 H   0  0  0  0  0  0  0  0  0  0  0  0
   -3.4761   -1.7784   34.9443 H   0  0  0  0  0  0  0  0  0  0  0  0
   -5.6814   -1.2408   33.2854 H   0  0  0  0  0  0  0  0  0  0  0  0
   -5.0918   -2.6209   34.3033 H   0  0  0  0  0  0  0  0  0  0  0  0
   -5.1436   -1.2986   36.3416 H   0  0  0  0  0  0  0  0  0  0  0  0
   -7.2818   -0.2806   37.7042 H   0  0  0  0  0  0  0  0  0  0  0  0
   -9.4070    1.2610   36.9205 H   0  0  0  0  0  0  0  0  0  0  0  0
   -7.2150    0.6389   33.5867 H   0  0  0  0  0  0  0  0  0  0  0  0
   -4.7189    0.7729   33.9505 H   0  0  0  0  0  0  0  0  0  0  0  0
   -3.7335    0.8695   35.4067 H   0  0  0  0  0  0  0  0  0  0  0  0
  1  2  2  0
  2  3  1  0
  3  4  2  0
  4  5  1  0
  5  6  2  0
  6  7  1  0
  7  8  1  0
  8  9  2  0
  9 10  1  0
 10 11  2  0
  9 12  1  0
 12 13  1  0
 13 14  1  0
 14 15  1  0
 15 16  1  0
  2 17  1  0
 17 18  1  0
 18 19  1  0
 19 20  1  0
 20 21  1  0
 21 22  2  0
 22 23  1  0
 23 24  2  0
 24 25  1  0
 20 26  1  0
 11  3  1  0
 26 17  1  0
 10  6  1  0
 25 21  1  0
 16  8  1  0
  4 27  1  0
  5 28  1  0
  7 29  1  0
 11 30  1  0
 12 31  1  0
 12 32  1  0
 13 33  1  0
 13 34  1  0
 14 35  1  0
 14 36  1  0
 15 37  1  0
 15 38  1  0
 16 39  1  0
 16 40  1  0
 18 41  1  0
 18 42  1  0
 19 43  1  0
 19 44  1  0
 20 45  1  0
 22 46  1  0
 23 47  1  0
 25 48  1  0
 26 49  1  0
 26 50  1  0
M  END
>  <Energy>  (523) 
827.7227339942948

>  <compound_id>  (523) 
51677

>  <target_id>  (523) 
1

>  <reference_id>  (523) 
7

>  <inspiration_ids>  (523) 
[7, 40]

>  <energy_score>  (523) 
727.2302542926788

>  <distance_score>  (523) 
4.198030264455318

>  <path>  (523) 
/opt/xchem-fragalysis-2/maxwin/BulkDock/SCRATCH/511025/C51677-P7/C51677-P7.minimised.mol

>  <scratch_subdir>  (523) 
/opt/xchem-fragalysis-2/maxwin/BulkDock/SCRATCH/511025/C51677-P7

>  <fragmenstein_runtime>  (523) 
15.434381484985352

>  <fragmenstein_outcome>  (523) 
too moved

>  <fragmenstein_mode>  (523) 
expansion

>  <fragmenstein_error>  (523) 


$$$$
C51677-P40
     RDKit          3D

 50 54  0  0  0  0  0  0  0  0999 V2000
   -1.7571   -2.5324   33.8448 O   0  0  0  0  0  0  0  0  0  0  0  0
   -2.1209   -1.8352   33.0091 C   0  0  0  0  0  0  0  0  0  0  0  0
   -1.3326   -1.8286   31.7235 C   0  0  0  0  0  0  0  0  0  0  0  0
   -1.2684   -0.6889   30.9255 C   0  0  0  0  0  0  0  0  0  0  0  0
   -0.4782   -0.6511   29.7717 C   0  0  0  0  0  0  0  0  0  0  0  0
    0.2853   -1.7800   29.4641 C   0  0  0  0  0  0  0  0  0  0  0  0
    1.1885   -1.9723   28.4460 N   0  0  0  0  0  0  0  0  0  0  0  0
    1.8274   -3.1752   28.6007 C   0  0  0  0  0  0  0  0  0  0  0  0
    1.1693   -3.8615   29.6123 C   0  0  0  0  0  0  0  0  0  0  0  0
    0.2508   -2.9469   30.2227 C   0  0  0  0  0  0  0  0  0  0  0  0
   -0.5857   -2.9759   31.3655 C   0  0  0  0  0  0  0  0  0  0  0  0
    1.4341   -5.2703   30.0162 C   0  0  0  0  0  0  0  0  0  0  0  0
    1.8978   -6.1098   28.8238 C   0  0  0  0  0  0  0  0  0  0  0  0
    3.3862   -5.9731   28.4911 C   0  0  0  0  0  0  0  0  0  0  0  0
    3.9327   -4.5418   28.4591 C   0  0  0  0  0  0  0  0  0  0  0  0
    3.0093   -3.5450   27.7598 C   0  0  0  0  0  0  0  0  0  0  0  0
   -3.3914   -0.8697   32.8744 N   0  0  0  0  0  0  0  0  0  0  0  0
   -4.5057   -0.6136   33.5906 C   0  0  0  0  0  0  0  0  0  0  0  0
   -5.5677   -1.9136   33.5063 C   0  0  0  0  0  0  0  0  0  0  0  0
   -5.4816   -1.7373   34.9189 C   0  0  0  0  0  0  0  0  0  0  0  0
   -6.7229   -1.3287   35.6418 C   0  0  0  0  0  0  0  0  0  0  0  0
   -6.9140   -0.6058   36.8034 C   0  0  0  0  0  0  0  0  0  0  0  0
   -8.2920   -0.6978   37.0796 C   0  0  0  0  0  0  0  0  0  0  0  0
   -8.9366   -1.4294   36.1713 N   0  0  0  0  0  0  0  0  0  0  0  0
   -7.9840   -1.7352   35.2756 N   0  0  0  0  0  0  0  0  0  0  0  0
   -4.5779   -0.5488   34.3595 C   0  0  0  0  0  0  0  0  0  0  0  0
   -1.7963    0.2127   31.2147 H   0  0  0  0  0  0  0  0  0  0  0  0
   -0.4283    0.2482   29.1652 H   0  0  0  0  0  0  0  0  0  0  0  0
    1.4013   -1.2804   27.7392 H   0  0  0  0  0  0  0  0  0  0  0  0
   -0.6077   -3.8542   32.0045 H   0  0  0  0  0  0  0  0  0  0  0  0
    0.5030   -5.7060   30.3997 H   0  0  0  0  0  0  0  0  0  0  0  0
    2.1652   -5.3011   30.8311 H   0  0  0  0  0  0  0  0  0  0  0  0
    1.3240   -5.8421   27.9330 H   0  0  0  0  0  0  0  0  0  0  0  0
    1.6591   -7.1578   29.0090 H   0  0  0  0  0  0  0  0  0  0  0  0
    3.9805   -6.5471   29.2094 H   0  0  0  0  0  0  0  0  0  0  0  0
    3.5587   -6.4424   27.5141 H   0  0  0  0  0  0  0  0  0  0  0  0
    4.8974   -4.5610   27.9368 H   0  0  0  0  0  0  0  0  0  0  0  0
    4.1465   -4.2068   29.4823 H   0  0  0  0  0  0  0  0  0  0  0  0
    2.6842   -3.9602   26.8029 H   0  0  0  0  0  0  0  0  0  0  0  0
    3.5844   -2.6369   27.5393 H   0  0  0  0  0  0  0  0  0  0  0  0
   -4.9266   -0.5986   32.4648 H   0  0  0  0  0  0  0  0  0  0  0  0
   -4.9264    0.5853   33.1579 H   0  0  0  0  0  0  0  0  0  0  0  0
   -6.5193   -1.6590   33.0228 H   0  0  0  0  0  0  0  0  0  0  0  0
   -5.1030   -2.8124   33.0909 H   0  0  0  0  0  0  0  0  0  0  0  0
   -4.8936   -2.4930   35.4422 H   0  0  0  0  0  0  0  0  0  0  0  0
   -6.1571   -0.1165   37.4014 H   0  0  0  0  0  0  0  0  0  0  0  0
   -8.8427   -0.2828   37.9145 H   0  0  0  0  0  0  0  0  0  0  0  0
   -8.2648   -2.2504   34.4470 H   0  0  0  0  0  0  0  0  0  0  0  0
   -3.7034   -0.7040   35.2164 H   0  0  0  0  0  0  0  0  0  0  0  0
   -4.7413    0.5753   34.8923 H   0  0  0  0  0  0  0  0  0  0  0  0
  1  2  2  0
  2  3  1  0
  3  4  2  0
  4  5  1  0
  5  6  2  0
  6  7  1  0
  7  8  1  0
  8  9  2  0
  9 10  1  0
 10 11  2  0
  9 12  1  0
 12 13  1  0
 13 14  1  0
 14 15  1  0
 15 16  1  0
  2 17  1  0
 17 18  1  0
 18 19  1  0
 19 20  1  0
 20 21  1  0
 21 22  2  0
 22 23  1  0
 23 24  2  0
 24 25  1  0
 20 26  1  0
 11  3  1  0
 26 17  1  0
 10  6  1  0
 25 21  1  0
 16  8  1  0
  4 27  1  0
  5 28  1  0
  7 29  1  0
 11 30  1  0
 12 31  1  0
 12 32  1  0
 13 33  1  0
 13 34  1  0
 14 35  1  0
 14 36  1  0
 15 37  1  0
 15 38  1  0
 16 39  1  0
 16 40  1  0
 18 41  1  0
 18 42  1  0
 19 43  1  0
 19 44  1  0
 20 45  1  0
 22 46  1  0
 23 47  1  0
 25 48  1  0
 26 49  1  0
 26 50  1  0
M  END
>  <Energy>  (524) 
764.31967443233737

>  <compound_id>  (524) 
51677

>  <target_id>  (524) 
1

>  <reference_id>  (524) 
40

>  <inspiration_ids>  (524) 
[7, 40]

>  <energy_score>  (524) 
663.8271947307178

>  <distance_score>  (524) 
4.302526665814603

>  <path>  (524) 
/opt/xchem-fragalysis-2/maxwin/BulkDock/SCRATCH/511025/C51677-P40/C51677-P40.minimised.mol

>  <scratch_subdir>  (524) 
/opt/xchem-fragalysis-2/maxwin/BulkDock/SCRATCH/511025/C51677-P40

>  <fragmenstein_runtime>  (524) 
15.58171033859253

>  <fragmenstein_outcome>  (524) 
too moved

>  <fragmenstein_mode>  (524) 
expansion

>  <fragmenstein_error>  (524) 


$$$$
C54514-P7
     RDKit          3D

 49 52  0  0  0  0  0  0  0  0999 V2000
   -5.7685    0.3324   33.0423 C   0  0  0  0  0  0  0  0  0  0  0  0
   -4.9201   -0.6416   33.8084 N   0  0  0  0  0  0  0  0  0  0  0  0
   -6.1896   -0.7405   34.6537 C   0  0  0  0  0  0  0  0  0  0  0  0
   -6.7058    0.3312   35.6743 C   0  0  0  0  0  0  0  0  0  0  0  0
   -7.8657   -0.2213   36.4554 C   0  0  0  0  0  0  0  0  0  0  0  0
   -7.8091   -1.1079   37.5507 C   0  0  0  0  0  0  0  0  0  0  0  0
   -9.0077   -1.5922   37.8810 N   0  0  0  0  0  0  0  0  0  0  0  0
   -9.8565   -0.9132   37.0932 N   0  0  0  0  0  0  0  0  0  0  0  0
  -11.2690   -1.2076   37.1528 C   0  0  0  0  0  0  0  0  0  0  0  0
   -9.2210   -0.0357   36.2617 C   0  0  0  0  0  0  0  0  0  0  0  0
   -4.3151   -1.5906   32.9091 C   0  0  0  0  0  0  0  0  0  0  0  0
   -4.7060   -2.6676   32.5280 O   0  0  0  0  0  0  0  0  0  0  0  0
   -2.9291   -1.2730   32.3705 C   0  0  0  0  0  0  0  0  0  0  0  0
   -2.6030   -0.0784   31.7282 C   0  0  0  0  0  0  0  0  0  0  0  0
   -1.4581    0.0361   30.9137 C   0  0  0  0  0  0  0  0  0  0  0  0
   -0.6215   -1.0770   30.7799 C   0  0  0  0  0  0  0  0  0  0  0  0
    0.5140   -1.2610   30.0186 N   0  0  0  0  0  0  0  0  0  0  0  0
    1.0626   -2.4769   30.3072 C   0  0  0  0  0  0  0  0  0  0  0  0
    0.2406   -3.1247   31.2069 C   0  0  0  0  0  0  0  0  0  0  0  0
   -0.8504   -2.2580   31.4824 C   0  0  0  0  0  0  0  0  0  0  0  0
   -2.0092   -2.3423   32.2818 C   0  0  0  0  0  0  0  0  0  0  0  0
    0.5781   -4.4495   31.7987 C   0  0  0  0  0  0  0  0  0  0  0  0
    1.7691   -5.0904   31.0686 C   0  0  0  0  0  0  0  0  0  0  0  0
    2.8742   -4.0835   30.7038 C   0  0  0  0  0  0  0  0  0  0  0  0
    2.3483   -2.9848   29.7654 C   0  0  0  0  0  0  0  0  0  0  0  0
   -6.6940   -0.0639   32.5960 H   0  0  0  0  0  0  0  0  0  0  0  0
   -5.2065    0.6400   32.1584 H   0  0  0  0  0  0  0  0  0  0  0  0
   -5.8749    1.2838   33.5703 H   0  0  0  0  0  0  0  0  0  0  0  0
   -5.8837   -1.5740   35.3049 H   0  0  0  0  0  0  0  0  0  0  0  0
   -7.0154   -1.2338   34.1078 H   0  0  0  0  0  0  0  0  0  0  0  0
   -7.0417    1.2490   35.1824 H   0  0  0  0  0  0  0  0  0  0  0  0
   -5.8912    0.6070   36.3540 H   0  0  0  0  0  0  0  0  0  0  0  0
   -6.9358   -1.4696   38.0793 H   0  0  0  0  0  0  0  0  0  0  0  0
  -11.4125   -2.2597   36.8937 H   0  0  0  0  0  0  0  0  0  0  0  0
  -11.8011   -0.5717   36.4410 H   0  0  0  0  0  0  0  0  0  0  0  0
  -11.6195   -1.0081   38.1683 H   0  0  0  0  0  0  0  0  0  0  0  0
   -9.7701    0.5963   35.5806 H   0  0  0  0  0  0  0  0  0  0  0  0
   -3.2560    0.7831   31.7778 H   0  0  0  0  0  0  0  0  0  0  0  0
   -1.2527    0.9594   30.3808 H   0  0  0  0  0  0  0  0  0  0  0  0
    0.9067   -0.5751   29.3882 H   0  0  0  0  0  0  0  0  0  0  0  0
   -2.1974   -3.2648   32.8103 H   0  0  0  0  0  0  0  0  0  0  0  0
    0.8380   -4.3058   32.8546 H   0  0  0  0  0  0  0  0  0  0  0  0
   -0.2860   -5.1222   31.7617 H   0  0  0  0  0  0  0  0  0  0  0  0
    2.1932   -5.8779   31.6936 H   0  0  0  0  0  0  0  0  0  0  0  0
    1.4002   -5.5587   30.1500 H   0  0  0  0  0  0  0  0  0  0  0  0
    3.7147   -4.6026   30.2327 H   0  0  0  0  0  0  0  0  0  0  0  0
    3.2593   -3.6283   31.6257 H   0  0  0  0  0  0  0  0  0  0  0  0
    2.1802   -3.3970   28.7640 H   0  0  0  0  0  0  0  0  0  0  0  0
    3.0885   -2.1822   29.6797 H   0  0  0  0  0  0  0  0  0  0  0  0
  1  2  1  0
  2  3  1  0
  3  4  1  0
  4  5  1  0
  5  6  1  0
  6  7  2  0
  7  8  1  0
  8  9  1  0
  8 10  1  0
  2 11  1  0
 11 12  2  0
 11 13  1  0
 13 14  2  0
 14 15  1  0
 15 16  2  0
 16 17  1  0
 17 18  1  0
 18 19  2  0
 19 20  1  0
 20 21  2  0
 19 22  1  0
 22 23  1  0
 23 24  1  0
 24 25  1  0
 10  5  2  0
 21 13  1  0
 20 16  1  0
 25 18  1  0
  1 26  1  0
  1 27  1  0
  1 28  1  0
  3 29  1  0
  3 30  1  0
  4 31  1  0
  4 32  1  0
  6 33  1  0
  9 34  1  0
  9 35  1  0
  9 36  1  0
 10 37  1  0
 14 38  1  0
 15 39  1  0
 17 40  1  0
 21 41  1  0
 22 42  1  0
 22 43  1  0
 23 44  1  0
 23 45  1  0
 24 46  1  0
 24 47  1  0
 25 48  1  0
 25 49  1  0
M  END
>  <Energy>  (525) 
126.68699982888269

>  <compound_id>  (525) 
54514

>  <target_id>  (525) 
1

>  <reference_id>  (525) 
7

>  <inspiration_ids>  (525) 
[7, 40]

>  <energy_score>  (525) 
53.05858825501849

>  <distance_score>  (525) 
4.752841412616694

>  <path>  (525) 
/opt/xchem-fragalysis-2/maxwin/BulkDock/SCRATCH/511025/C54514-P7/C54514-P7.minimised.mol

>  <scratch_subdir>  (525) 
/opt/xchem-fragalysis-2/maxwin/BulkDock/SCRATCH/511025/C54514-P7

>  <fragmenstein_runtime>  (525) 
12.504182815551758

>  <fragmenstein_outcome>  (525) 
too moved

>  <fragmenstein_mode>  (525) 
expansion

>  <fragmenstein_error>  (525) 


$$$$
C54514-P40
     RDKit          3D

 49 52  0  0  0  0  0  0  0  0999 V2000
   -3.5483   -1.1853   36.2734 C   0  0  0  0  0  0  0  0  0  0  0  0
   -4.3139   -1.1770   34.9712 N   0  0  0  0  0  0  0  0  0  0  0  0
   -5.4669   -0.7617   35.9108 C   0  0  0  0  0  0  0  0  0  0  0  0
   -6.7955   -0.6025   35.0989 C   0  0  0  0  0  0  0  0  0  0  0  0
   -8.0315   -0.6892   35.9481 C   0  0  0  0  0  0  0  0  0  0  0  0
   -8.5846    0.2819   36.8139 C   0  0  0  0  0  0  0  0  0  0  0  0
   -9.7021   -0.1379   37.4176 N   0  0  0  0  0  0  0  0  0  0  0  0
   -9.8919   -1.3705   36.9189 N   0  0  0  0  0  0  0  0  0  0  0  0
  -11.0122   -2.1675   37.3626 C   0  0  0  0  0  0  0  0  0  0  0  0
   -8.9282   -1.7363   36.0287 C   0  0  0  0  0  0  0  0  0  0  0  0
   -3.5993   -0.4309   33.9851 C   0  0  0  0  0  0  0  0  0  0  0  0
   -3.6531    0.7372   33.6977 O   0  0  0  0  0  0  0  0  0  0  0  0
   -2.6974   -1.2704   33.0835 C   0  0  0  0  0  0  0  0  0  0  0  0
   -2.6922   -0.9491   31.7200 C   0  0  0  0  0  0  0  0  0  0  0  0
   -1.9406   -1.6246   30.7484 C   0  0  0  0  0  0  0  0  0  0  0  0
   -1.2485   -2.7457   31.1777 C   0  0  0  0  0  0  0  0  0  0  0  0
   -0.5504   -3.6814   30.4461 N   0  0  0  0  0  0  0  0  0  0  0  0
   -0.2790   -4.7466   31.2575 C   0  0  0  0  0  0  0  0  0  0  0  0
   -0.5778   -4.3908   32.5580 C   0  0  0  0  0  0  0  0  0  0  0  0
   -1.2332   -3.1365   32.5156 C   0  0  0  0  0  0  0  0  0  0  0  0
   -1.9204   -2.3584   33.4827 C   0  0  0  0  0  0  0  0  0  0  0  0
   -0.4027   -5.3205   33.7083 C   0  0  0  0  0  0  0  0  0  0  0  0
   -0.5930   -6.7588   33.2162 C   0  0  0  0  0  0  0  0  0  0  0  0
    0.3122   -7.0237   32.0090 C   0  0  0  0  0  0  0  0  0  0  0  0
    0.1180   -6.0937   30.8002 C   0  0  0  0  0  0  0  0  0  0  0  0
   -2.5055   -1.4213   36.0329 H   0  0  0  0  0  0  0  0  0  0  0  0
   -3.4457   -0.1993   36.7536 H   0  0  0  0  0  0  0  0  0  0  0  0
   -3.8401   -1.9903   36.9612 H   0  0  0  0  0  0  0  0  0  0  0  0
   -5.6874   -1.5295   36.6674 H   0  0  0  0  0  0  0  0  0  0  0  0
   -5.3048    0.2326   36.3572 H   0  0  0  0  0  0  0  0  0  0  0  0
   -6.8411   -1.3883   34.3330 H   0  0  0  0  0  0  0  0  0  0  0  0
   -6.7782    0.3513   34.5597 H   0  0  0  0  0  0  0  0  0  0  0  0
   -8.2144    1.2767   37.0295 H   0  0  0  0  0  0  0  0  0  0  0  0
  -11.9038   -1.5364   37.3800 H   0  0  0  0  0  0  0  0  0  0  0  0
  -10.7866   -2.5394   38.3650 H   0  0  0  0  0  0  0  0  0  0  0  0
  -11.1559   -3.0028   36.6734 H   0  0  0  0  0  0  0  0  0  0  0  0
   -8.9607   -2.6804   35.5118 H   0  0  0  0  0  0  0  0  0  0  0  0
   -3.3653   -0.1773   31.3787 H   0  0  0  0  0  0  0  0  0  0  0  0
   -1.9898   -1.3379   29.7023 H   0  0  0  0  0  0  0  0  0  0  0  0
   -0.4594   -3.6504   29.4383 H   0  0  0  0  0  0  0  0  0  0  0  0
   -1.9112   -2.6925   34.5111 H   0  0  0  0  0  0  0  0  0  0  0  0
    0.6079   -5.1958   34.1162 H   0  0  0  0  0  0  0  0  0  0  0  0
   -1.1029   -5.1091   34.5199 H   0  0  0  0  0  0  0  0  0  0  0  0
   -1.6343   -6.9355   32.9308 H   0  0  0  0  0  0  0  0  0  0  0  0
   -0.3538   -7.4602   34.0234 H   0  0  0  0  0  0  0  0  0  0  0  0
    0.1721   -8.0521   31.6747 H   0  0  0  0  0  0  0  0  0  0  0  0
    1.3373   -6.8986   32.3692 H   0  0  0  0  0  0  0  0  0  0  0  0
   -0.6724   -6.5060   30.1623 H   0  0  0  0  0  0  0  0  0  0  0  0
    1.0326   -6.0533   30.1995 H   0  0  0  0  0  0  0  0  0  0  0  0
  1  2  1  0
  2  3  1  0
  3  4  1  0
  4  5  1  0
  5  6  1  0
  6  7  2  0
  7  8  1  0
  8  9  1  0
  8 10  1  0
  2 11  1  0
 11 12  2  0
 11 13  1  0
 13 14  2  0
 14 15  1  0
 15 16  2  0
 16 17  1  0
 17 18  1  0
 18 19  2  0
 19 20  1  0
 20 21  2  0
 19 22  1  0
 22 23  1  0
 23 24  1  0
 24 25  1  0
 10  5  2  0
 21 13  1  0
 20 16  1  0
 25 18  1  0
  1 26  1  0
  1 27  1  0
  1 28  1  0
  3 29  1  0
  3 30  1  0
  4 31  1  0
  4 32  1  0
  6 33  1  0
  9 34  1  0
  9 35  1  0
  9 36  1  0
 10 37  1  0
 14 38  1  0
 15 39  1  0
 17 40  1  0
 21 41  1  0
 22 42  1  0
 22 43  1  0
 23 44  1  0
 23 45  1  0
 24 46  1  0
 24 47  1  0
 25 48  1  0
 25 49  1  0
M  END
>  <Energy>  (526) 
116.68830748695007

>  <compound_id>  (526) 
54514

>  <target_id>  (526) 
1

>  <reference_id>  (526) 
40

>  <inspiration_ids>  (526) 
[7, 40]

>  <energy_score>  (526) 
43.05989591308315

>  <distance_score>  (526) 
4.854559383779213

>  <path>  (526) 
/opt/xchem-fragalysis-2/maxwin/BulkDock/SCRATCH/511025/C54514-P40/C54514-P40.minimised.mol

>  <scratch_subdir>  (526) 
/opt/xchem-fragalysis-2/maxwin/BulkDock/SCRATCH/511025/C54514-P40

>  <fragmenstein_runtime>  (526) 
10.465784072875977

>  <fragmenstein_outcome>  (526) 
too moved

>  <fragmenstein_mode>  (526) 
expansion

>  <fragmenstein_error>  (526) 


$$$$
C54515-P7
     RDKit          3D

 48 51  0  0  0  0  0  0  0  0999 V2000
  -10.2113   -0.3719   37.0980 N   0  0  0  0  0  0  0  0  0  0  0  0
   -9.0525   -0.6068   36.4574 C   0  0  0  0  0  0  0  0  0  0  0  0
   -7.8191   -0.0096   36.5274 C   0  0  0  0  0  0  0  0  0  0  0  0
   -6.9420   -0.7199   35.6121 C   0  0  0  0  0  0  0  0  0  0  0  0
   -5.4433   -0.4493   35.4234 C   0  0  0  0  0  0  0  0  0  0  0  0
   -5.0176    0.4233   36.0801 O   0  0  0  0  0  0  0  0  0  0  0  0
   -4.7093   -1.4476   34.4644 N   0  0  0  0  0  0  0  0  0  0  0  0
   -3.2617   -1.6337   34.1927 C   0  0  0  0  0  0  0  0  0  0  0  0
   -2.7019   -2.0529   32.8157 C   0  0  0  0  0  0  0  0  0  0  0  0
   -3.0843   -1.3483   31.6767 C   0  0  0  0  0  0  0  0  0  0  0  0
   -2.4186   -1.4697   30.4482 C   0  0  0  0  0  0  0  0  0  0  0  0
   -1.3541   -2.3532   30.3657 C   0  0  0  0  0  0  0  0  0  0  0  0
   -0.5323   -2.6185   29.3090 N   0  0  0  0  0  0  0  0  0  0  0  0
    0.1961   -3.7113   29.6286 C   0  0  0  0  0  0  0  0  0  0  0  0
    0.0330   -4.0368   30.9466 C   0  0  0  0  0  0  0  0  0  0  0  0
   -0.9581   -3.1478   31.4371 C   0  0  0  0  0  0  0  0  0  0  0  0
   -1.6172   -2.9661   32.6778 C   0  0  0  0  0  0  0  0  0  0  0  0
    0.5935   -5.2317   31.6243 C   0  0  0  0  0  0  0  0  0  0  0  0
   -0.4571   -6.3191   31.6386 C   0  0  0  0  0  0  0  0  0  0  0  0
   -0.7674   -7.1121   30.3699 C   0  0  0  0  0  0  0  0  0  0  0  0
   -0.5204   -6.8042   28.8718 C   0  0  0  0  0  0  0  0  0  0  0  0
   -0.2274   -5.4965   28.1359 C   0  0  0  0  0  0  0  0  0  0  0  0
    0.8281   -4.4981   28.6103 C   0  0  0  0  0  0  0  0  0  0  0  0
   -7.6531   -1.6918   35.0077 N   0  0  0  0  0  0  0  0  0  0  0  0
   -8.9108   -1.5660   35.5019 N   0  0  0  0  0  0  0  0  0  0  0  0
  -10.9565   -1.0625   37.1468 H   0  0  0  0  0  0  0  0  0  0  0  0
  -10.2092    0.2439   37.9114 H   0  0  0  0  0  0  0  0  0  0  0  0
   -7.5241    0.8137   37.1637 H   0  0  0  0  0  0  0  0  0  0  0  0
   -5.3713   -2.1315   34.1155 H   0  0  0  0  0  0  0  0  0  0  0  0
   -2.7928   -0.6725   34.4409 H   0  0  0  0  0  0  0  0  0  0  0  0
   -2.9065   -2.3217   34.9655 H   0  0  0  0  0  0  0  0  0  0  0  0
   -3.8846   -0.6117   31.7534 H   0  0  0  0  0  0  0  0  0  0  0  0
   -2.7204   -0.8645   29.5987 H   0  0  0  0  0  0  0  0  0  0  0  0
   -0.6192   -2.2106   28.3862 H   0  0  0  0  0  0  0  0  0  0  0  0
   -1.2592   -3.5152   33.5459 H   0  0  0  0  0  0  0  0  0  0  0  0
    1.5179   -5.5872   31.1604 H   0  0  0  0  0  0  0  0  0  0  0  0
    0.8527   -4.9621   32.6557 H   0  0  0  0  0  0  0  0  0  0  0  0
   -1.3987   -5.8935   32.0059 H   0  0  0  0  0  0  0  0  0  0  0  0
   -0.2014   -7.0417   32.4206 H   0  0  0  0  0  0  0  0  0  0  0  0
   -1.8412   -7.2856   30.4647 H   0  0  0  0  0  0  0  0  0  0  0  0
   -0.3846   -8.1254   30.5401 H   0  0  0  0  0  0  0  0  0  0  0  0
    0.1564   -7.5528   28.4579 H   0  0  0  0  0  0  0  0  0  0  0  0
   -1.4556   -7.1165   28.3979 H   0  0  0  0  0  0  0  0  0  0  0  0
    0.0231   -5.7860   27.1078 H   0  0  0  0  0  0  0  0  0  0  0  0
   -1.1681   -4.9685   28.0281 H   0  0  0  0  0  0  0  0  0  0  0  0
    1.1631   -3.8685   27.7797 H   0  0  0  0  0  0  0  0  0  0  0  0
    1.7187   -4.9029   29.0897 H   0  0  0  0  0  0  0  0  0  0  0  0
   -9.6412   -2.1468   35.1124 H   0  0  0  0  0  0  0  0  0  0  0  0
  1  2  1  0
  2  3  2  0
  3  4  1  0
  4  5  1  0
  5  6  2  0
  5  7  1  0
  7  8  1  0
  8  9  1  0
  9 10  2  0
 10 11  1  0
 11 12  2  0
 12 13  1  0
 13 14  1  0
 14 15  2  0
 15 16  1  0
 16 17  2  0
 15 18  1  0
 18 19  1  0
 19 20  1  0
 20 21  1  0
 21 22  1  0
 22 23  1  0
  4 24  2  0
 24 25  1  0
 25  2  1  0
 17  9  1  0
 16 12  1  0
 23 14  1  0
  1 26  1  0
  1 27  1  0
  3 28  1  0
  7 29  1  0
  8 30  1  0
  8 31  1  0
 10 32  1  0
 11 33  1  0
 13 34  1  0
 17 35  1  0
 18 36  1  0
 18 37  1  0
 19 38  1  0
 19 39  1  0
 20 40  1  0
 20 41  1  0
 21 42  1  0
 21 43  1  0
 22 44  1  0
 22 45  1  0
 23 46  1  0
 23 47  1  0
 25 48  1  0
M  END
>  <Energy>  (527) 
109.72281843574136

>  <compound_id>  (527) 
54515

>  <target_id>  (527) 
1

>  <reference_id>  (527) 
7

>  <inspiration_ids>  (527) 
[7, 40]

>  <energy_score>  (527) 
-1.1485418829418563

>  <distance_score>  (527) 
4.563435002370091

>  <path>  (527) 
/opt/xchem-fragalysis-2/maxwin/BulkDock/SCRATCH/511025/C54515-P7/C54515-P7.minimised.mol

>  <scratch_subdir>  (527) 
/opt/xchem-fragalysis-2/maxwin/BulkDock/SCRATCH/511025/C54515-P7

>  <fragmenstein_runtime>  (527) 
10.207611083984375

>  <fragmenstein_outcome>  (527) 
too moved

>  <fragmenstein_mode>  (527) 
expansion

>  <fragmenstein_error>  (527) 


$$$$
C54515-P40
     RDKit          3D

 48 51  0  0  0  0  0  0  0  0999 V2000
   -9.3831   -1.5143   36.0987 N   0  0  0  0  0  0  0  0  0  0  0  0
   -8.1149   -1.4545   35.6593 C   0  0  0  0  0  0  0  0  0  0  0  0
   -7.5298   -1.7665   34.4564 C   0  0  0  0  0  0  0  0  0  0  0  0
   -6.0975   -1.6519   34.5992 C   0  0  0  0  0  0  0  0  0  0  0  0
   -5.0056   -2.1010   33.5775 C   0  0  0  0  0  0  0  0  0  0  0  0
   -5.3471   -2.6544   32.6023 O   0  0  0  0  0  0  0  0  0  0  0  0
   -3.5753   -1.7906   34.1136 N   0  0  0  0  0  0  0  0  0  0  0  0
   -2.2293   -2.1950   33.5898 C   0  0  0  0  0  0  0  0  0  0  0  0
   -1.8300   -2.7942   32.2151 C   0  0  0  0  0  0  0  0  0  0  0  0
   -2.3986   -2.3056   31.0485 C   0  0  0  0  0  0  0  0  0  0  0  0
   -1.8359   -2.5457   29.7820 C   0  0  0  0  0  0  0  0  0  0  0  0
   -0.6491   -3.2727   29.6803 C   0  0  0  0  0  0  0  0  0  0  0  0
    0.1240   -3.5202   28.5748 N   0  0  0  0  0  0  0  0  0  0  0  0
    1.3697   -3.9508   28.9555 C   0  0  0  0  0  0  0  0  0  0  0  0
    1.3028   -4.2157   30.3228 C   0  0  0  0  0  0  0  0  0  0  0  0
   -0.0086   -3.7978   30.7868 C   0  0  0  0  0  0  0  0  0  0  0  0
   -0.6415   -3.5978   32.0642 C   0  0  0  0  0  0  0  0  0  0  0  0
    2.4285   -4.5750   31.2444 C   0  0  0  0  0  0  0  0  0  0  0  0
    3.8133   -4.0342   30.8592 C   0  0  0  0  0  0  0  0  0  0  0  0
    4.6572   -4.8260   29.8372 C   0  0  0  0  0  0  0  0  0  0  0  0
    3.9290   -5.7708   28.8805 C   0  0  0  0  0  0  0  0  0  0  0  0
    3.2507   -5.1016   27.6932 C   0  0  0  0  0  0  0  0  0  0  0  0
    2.5233   -3.8129   28.0163 C   0  0  0  0  0  0  0  0  0  0  0  0
   -5.8523   -1.1548   35.8356 N   0  0  0  0  0  0  0  0  0  0  0  0
   -7.0731   -1.0395   36.4284 N   0  0  0  0  0  0  0  0  0  0  0  0
  -10.0870   -1.9940   35.5366 H   0  0  0  0  0  0  0  0  0  0  0  0
   -9.6481   -1.4181   37.0756 H   0  0  0  0  0  0  0  0  0  0  0  0
   -8.0240   -2.1347   33.5774 H   0  0  0  0  0  0  0  0  0  0  0  0
   -3.6432   -1.2212   34.9510 H   0  0  0  0  0  0  0  0  0  0  0  0
   -1.8168   -2.8477   34.3684 H   0  0  0  0  0  0  0  0  0  0  0  0
   -1.6440   -1.2685   33.6691 H   0  0  0  0  0  0  0  0  0  0  0  0
   -3.2747   -1.6592   31.1039 H   0  0  0  0  0  0  0  0  0  0  0  0
   -2.2995   -2.1106   28.8983 H   0  0  0  0  0  0  0  0  0  0  0  0
   -0.1208   -3.1507   27.6680 H   0  0  0  0  0  0  0  0  0  0  0  0
   -0.1131   -3.9157   32.9609 H   0  0  0  0  0  0  0  0  0  0  0  0
    2.2014   -4.1553   32.2335 H   0  0  0  0  0  0  0  0  0  0  0  0
    2.4163   -5.6536   31.3835 H   0  0  0  0  0  0  0  0  0  0  0  0
    4.4137   -3.9795   31.7781 H   0  0  0  0  0  0  0  0  0  0  0  0
    3.7242   -2.9910   30.5315 H   0  0  0  0  0  0  0  0  0  0  0  0
    5.2756   -4.1219   29.2657 H   0  0  0  0  0  0  0  0  0  0  0  0
    5.3823   -5.4262   30.4009 H   0  0  0  0  0  0  0  0  0  0  0  0
    3.1934   -6.3737   29.4123 H   0  0  0  0  0  0  0  0  0  0  0  0
    4.6581   -6.4891   28.4831 H   0  0  0  0  0  0  0  0  0  0  0  0
    2.5655   -5.8177   27.2232 H   0  0  0  0  0  0  0  0  0  0  0  0
    4.0182   -4.8760   26.9413 H   0  0  0  0  0  0  0  0  0  0  0  0
    2.1798   -3.3834   27.0781 H   0  0  0  0  0  0  0  0  0  0  0  0
    3.2197   -3.0581   28.3961 H   0  0  0  0  0  0  0  0  0  0  0  0
   -7.1078   -0.6894   37.3778 H   0  0  0  0  0  0  0  0  0  0  0  0
  1  2  1  0
  2  3  2  0
  3  4  1  0
  4  5  1  0
  5  6  2  0
  5  7  1  0
  7  8  1  0
  8  9  1  0
  9 10  2  0
 10 11  1  0
 11 12  2  0
 12 13  1  0
 13 14  1  0
 14 15  2  0
 15 16  1  0
 16 17  2  0
 15 18  1  0
 18 19  1  0
 19 20  1  0
 20 21  1  0
 21 22  1  0
 22 23  1  0
  4 24  2  0
 24 25  1  0
 25  2  1  0
 17  9  1  0
 16 12  1  0
 23 14  1  0
  1 26  1  0
  1 27  1  0
  3 28  1  0
  7 29  1  0
  8 30  1  0
  8 31  1  0
 10 32  1  0
 11 33  1  0
 13 34  1  0
 17 35  1  0
 18 36  1  0
 18 37  1  0
 19 38  1  0
 19 39  1  0
 20 40  1  0
 20 41  1  0
 21 42  1  0
 21 43  1  0
 22 44  1  0
 22 45  1  0
 23 46  1  0
 23 47  1  0
 25 48  1  0
M  END
>  <Energy>  (528) 
97.779400249740206

>  <compound_id>  (528) 
54515

>  <target_id>  (528) 
1

>  <reference_id>  (528) 
40

>  <inspiration_ids>  (528) 
[7, 40]

>  <energy_score>  (528) 
-13.091960068943877

>  <distance_score>  (528) 
4.547898594587208

>  <path>  (528) 
/opt/xchem-fragalysis-2/maxwin/BulkDock/SCRATCH/511025/C54515-P40/C54515-P40.minimised.mol

>  <scratch_subdir>  (528) 
/opt/xchem-fragalysis-2/maxwin/BulkDock/SCRATCH/511025/C54515-P40

>  <fragmenstein_runtime>  (528) 
8.554373264312744

>  <fragmenstein_outcome>  (528) 
too moved

>  <fragmenstein_mode>  (528) 
expansion

>  <fragmenstein_error>  (528) 


$$$$
C54518-P7
     RDKit          3D

 49 53  0  0  0  0  0  0  0  0999 V2000
   -4.6499   -0.7294   35.4219 O   0  0  0  0  0  0  0  0  0  0  0  0
   -5.4408   -0.8025   34.5250 C   0  0  0  0  0  0  0  0  0  0  0  0
   -6.8406   -0.4408   34.4712 N   0  0  0  0  0  0  0  0  0  0  0  0
   -7.7037    0.2186   35.4620 C   0  0  0  0  0  0  0  0  0  0  0  0
   -9.0170   -0.3966   35.9226 C   0  0  0  0  0  0  0  0  0  0  0  0
   -9.2297   -1.7728   35.8518 C   0  0  0  0  0  0  0  0  0  0  0  0
  -10.4399   -2.3553   36.2680 C   0  0  0  0  0  0  0  0  0  0  0  0
  -11.4404   -1.5472   36.7402 C   0  0  0  0  0  0  0  0  0  0  0  0
  -11.2891   -0.2260   36.8499 N   0  0  0  0  0  0  0  0  0  0  0  0
  -10.0891    0.3351   36.4845 C   0  0  0  0  0  0  0  0  0  0  0  0
  -10.0265    1.7406   36.7450 N   0  0  0  0  0  0  0  0  0  0  0  0
  -11.0540    2.4909   37.2923 C   0  0  0  0  0  0  0  0  0  0  0  0
  -10.5955    3.7751   37.4301 C   0  0  0  0  0  0  0  0  0  0  0  0
   -9.2854    3.7273   36.9372 C   0  0  0  0  0  0  0  0  0  0  0  0
   -8.9393    2.5150   36.5037 N   0  0  0  0  0  0  0  0  0  0  0  0
   -4.7959   -1.2653   33.1981 C   0  0  0  0  0  0  0  0  0  0  0  0
   -5.3168   -0.9695   31.9338 C   0  0  0  0  0  0  0  0  0  0  0  0
   -4.6025   -1.2415   30.7419 C   0  0  0  0  0  0  0  0  0  0  0  0
   -3.3264   -1.8139   30.8302 C   0  0  0  0  0  0  0  0  0  0  0  0
   -2.4082   -2.1289   29.8429 N   0  0  0  0  0  0  0  0  0  0  0  0
   -1.3155   -2.7249   30.4077 C   0  0  0  0  0  0  0  0  0  0  0  0
   -1.4942   -2.7493   31.7768 C   0  0  0  0  0  0  0  0  0  0  0  0
   -2.7620   -2.1531   32.0595 C   0  0  0  0  0  0  0  0  0  0  0  0
   -3.5027   -1.8531   33.2378 C   0  0  0  0  0  0  0  0  0  0  0  0
   -0.4560   -3.2975   32.7001 C   0  0  0  0  0  0  0  0  0  0  0  0
    0.5418   -4.1914   31.9356 C   0  0  0  0  0  0  0  0  0  0  0  0
    1.0154   -3.5399   30.6218 C   0  0  0  0  0  0  0  0  0  0  0  0
   -0.1482   -3.2590   29.6530 C   0  0  0  0  0  0  0  0  0  0  0  0
   -7.2180   -0.7161   33.5759 H   0  0  0  0  0  0  0  0  0  0  0  0
   -7.0844    0.4314   36.3399 H   0  0  0  0  0  0  0  0  0  0  0  0
   -7.9280    1.1517   34.9412 H   0  0  0  0  0  0  0  0  0  0  0  0
   -8.4294   -2.3917   35.4586 H   0  0  0  0  0  0  0  0  0  0  0  0
  -10.6162   -3.4233   36.2299 H   0  0  0  0  0  0  0  0  0  0  0  0
  -12.3989   -1.9467   37.0574 H   0  0  0  0  0  0  0  0  0  0  0  0
  -12.0015    2.0356   37.5452 H   0  0  0  0  0  0  0  0  0  0  0  0
  -11.1297    4.6211   37.8385 H   0  0  0  0  0  0  0  0  0  0  0  0
   -8.5638    4.5324   36.8748 H   0  0  0  0  0  0  0  0  0  0  0  0
   -6.2618   -0.4434   31.8257 H   0  0  0  0  0  0  0  0  0  0  0  0
   -5.0231   -0.9619   29.7798 H   0  0  0  0  0  0  0  0  0  0  0  0
   -2.5539   -2.0040   28.8481 H   0  0  0  0  0  0  0  0  0  0  0  0
   -3.0408   -2.0627   34.2019 H   0  0  0  0  0  0  0  0  0  0  0  0
    0.0838   -2.4600   33.1584 H   0  0  0  0  0  0  0  0  0  0  0  0
   -0.9144   -3.8743   33.5084 H   0  0  0  0  0  0  0  0  0  0  0  0
    1.4041   -4.4053   32.5772 H   0  0  0  0  0  0  0  0  0  0  0  0
    0.0675   -5.1541   31.7041 H   0  0  0  0  0  0  0  0  0  0  0  0
    1.7525   -4.1841   30.1287 H   0  0  0  0  0  0  0  0  0  0  0  0
    1.5248   -2.5971   30.8600 H   0  0  0  0  0  0  0  0  0  0  0  0
   -0.4397   -4.1910   29.1547 H   0  0  0  0  0  0  0  0  0  0  0  0
    0.1741   -2.5557   28.8774 H   0  0  0  0  0  0  0  0  0  0  0  0
  1  2  2  0
  2  3  1  0
  3  4  1  0
  4  5  1  0
  5  6  2  0
  6  7  1  0
  7  8  2  0
  8  9  1  0
  9 10  2  0
 10 11  1  0
 11 12  1  0
 12 13  2  0
 13 14  1  0
 14 15  2  0
  2 16  1  0
 16 17  2  0
 17 18  1  0
 18 19  2  0
 19 20  1  0
 20 21  1  0
 21 22  2  0
 22 23  1  0
 23 24  2  0
 22 25  1  0
 25 26  1  0
 26 27  1  0
 27 28  1  0
 10  5  1  0
 15 11  1  0
 24 16  1  0
 23 19  1  0
 28 21  1  0
  3 29  1  0
  4 30  1  0
  4 31  1  0
  6 32  1  0
  7 33  1  0
  8 34  1  0
 12 35  1  0
 13 36  1  0
 14 37  1  0
 17 38  1  0
 18 39  1  0
 20 40  1  0
 24 41  1  0
 25 42  1  0
 25 43  1  0
 26 44  1  0
 26 45  1  0
 27 46  1  0
 27 47  1  0
 28 48  1  0
 28 49  1  0
M  END
>  <Energy>  (529) 
83.290455430383972

>  <compound_id>  (529) 
54518

>  <target_id>  (529) 
1

>  <reference_id>  (529) 
7

>  <inspiration_ids>  (529) 
[7, 40]

>  <energy_score>  (529) 
-38.579714223219014

>  <distance_score>  (529) 
5.830821896078607

>  <path>  (529) 
/opt/xchem-fragalysis-2/maxwin/BulkDock/SCRATCH/511025/C54518-P7/C54518-P7.minimised.mol

>  <scratch_subdir>  (529) 
/opt/xchem-fragalysis-2/maxwin/BulkDock/SCRATCH/511025/C54518-P7

>  <fragmenstein_runtime>  (529) 
18.030004739761353

>  <fragmenstein_outcome>  (529) 
too moved

>  <fragmenstein_mode>  (529) 
expansion

>  <fragmenstein_error>  (529) 


$$$$
C54518-P40
     RDKit          3D

 49 53  0  0  0  0  0  0  0  0999 V2000
   -5.2626   -1.8173   35.5095 O   0  0  0  0  0  0  0  0  0  0  0  0
   -5.7628   -1.2622   34.5733 C   0  0  0  0  0  0  0  0  0  0  0  0
   -6.9033   -0.3839   34.5018 N   0  0  0  0  0  0  0  0  0  0  0  0
   -7.7488    0.1850   35.5581 C   0  0  0  0  0  0  0  0  0  0  0  0
   -9.0027   -0.5277   36.0572 C   0  0  0  0  0  0  0  0  0  0  0  0
   -9.1216   -1.9204   35.9951 C   0  0  0  0  0  0  0  0  0  0  0  0
  -10.2418   -2.5751   36.5283 C   0  0  0  0  0  0  0  0  0  0  0  0
  -11.2426   -1.8417   37.1058 C   0  0  0  0  0  0  0  0  0  0  0  0
  -11.2073   -0.5109   37.1567 N   0  0  0  0  0  0  0  0  0  0  0  0
  -10.0870    0.1318   36.6878 C   0  0  0  0  0  0  0  0  0  0  0  0
  -10.1154    1.5405   36.9420 N   0  0  0  0  0  0  0  0  0  0  0  0
  -11.1930    2.2269   37.4810 C   0  0  0  0  0  0  0  0  0  0  0  0
  -10.8252    3.5423   37.5988 C   0  0  0  0  0  0  0  0  0  0  0  0
   -9.5095    3.5741   37.1211 C   0  0  0  0  0  0  0  0  0  0  0  0
   -9.0755    2.3788   36.7243 N   0  0  0  0  0  0  0  0  0  0  0  0
   -4.9830   -1.4474   33.2467 C   0  0  0  0  0  0  0  0  0  0  0  0
   -5.5227   -1.2439   31.9741 C   0  0  0  0  0  0  0  0  0  0  0  0
   -4.7675   -1.4294   30.7916 C   0  0  0  0  0  0  0  0  0  0  0  0
   -3.4408   -1.8660   30.8984 C   0  0  0  0  0  0  0  0  0  0  0  0
   -2.4994   -2.1392   29.9202 N   0  0  0  0  0  0  0  0  0  0  0  0
   -1.3633   -2.6237   30.5076 C   0  0  0  0  0  0  0  0  0  0  0  0
   -1.5453   -2.6180   31.8765 C   0  0  0  0  0  0  0  0  0  0  0  0
   -2.8566   -2.1196   32.1386 C   0  0  0  0  0  0  0  0  0  0  0  0
   -3.6302   -1.8723   33.3073 C   0  0  0  0  0  0  0  0  0  0  0  0
   -0.4808   -3.0575   32.8244 C   0  0  0  0  0  0  0  0  0  0  0  0
    0.6011   -3.8769   32.0911 C   0  0  0  0  0  0  0  0  0  0  0  0
    1.0231   -3.2252   30.7589 C   0  0  0  0  0  0  0  0  0  0  0  0
   -0.1544   -3.0834   29.7753 C   0  0  0  0  0  0  0  0  0  0  0  0
   -6.9907   -0.0323   33.5574 H   0  0  0  0  0  0  0  0  0  0  0  0
   -8.0409    1.1345   35.1091 H   0  0  0  0  0  0  0  0  0  0  0  0
   -7.0960    0.3674   36.4187 H   0  0  0  0  0  0  0  0  0  0  0  0
   -8.3246   -2.5005   35.5377 H   0  0  0  0  0  0  0  0  0  0  0  0
  -10.3558   -3.6500   36.5192 H   0  0  0  0  0  0  0  0  0  0  0  0
  -12.1152   -2.3194   37.5421 H   0  0  0  0  0  0  0  0  0  0  0  0
  -12.1096    1.7115   37.7316 H   0  0  0  0  0  0  0  0  0  0  0  0
  -11.4199    4.3572   37.9855 H   0  0  0  0  0  0  0  0  0  0  0  0
   -8.8412    4.4229   37.0463 H   0  0  0  0  0  0  0  0  0  0  0  0
   -6.5566   -0.9380   31.8550 H   0  0  0  0  0  0  0  0  0  0  0  0
   -5.2199   -1.2478   29.8206 H   0  0  0  0  0  0  0  0  0  0  0  0
   -2.6584   -2.0672   28.9203 H   0  0  0  0  0  0  0  0  0  0  0  0
   -3.1728   -2.0500   34.2795 H   0  0  0  0  0  0  0  0  0  0  0  0
   -0.0213   -2.1697   33.2753 H   0  0  0  0  0  0  0  0  0  0  0  0
   -0.9068   -3.6577   33.6354 H   0  0  0  0  0  0  0  0  0  0  0  0
    1.4744   -3.9920   32.7429 H   0  0  0  0  0  0  0  0  0  0  0  0
    0.2184   -4.8854   31.8865 H   0  0  0  0  0  0  0  0  0  0  0  0
    1.8198   -3.8141   30.2904 H   0  0  0  0  0  0  0  0  0  0  0  0
    1.4418   -2.2325   30.9696 H   0  0  0  0  0  0  0  0  0  0  0  0
   -0.3634   -4.0563   29.3150 H   0  0  0  0  0  0  0  0  0  0  0  0
    0.1112   -2.3861   28.9733 H   0  0  0  0  0  0  0  0  0  0  0  0
  1  2  2  0
  2  3  1  0
  3  4  1  0
  4  5  1  0
  5  6  2  0
  6  7  1  0
  7  8  2  0
  8  9  1  0
  9 10  2  0
 10 11  1  0
 11 12  1  0
 12 13  2  0
 13 14  1  0
 14 15  2  0
  2 16  1  0
 16 17  2  0
 17 18  1  0
 18 19  2  0
 19 20  1  0
 20 21  1  0
 21 22  2  0
 22 23  1  0
 23 24  2  0
 22 25  1  0
 25 26  1  0
 26 27  1  0
 27 28  1  0
 10  5  1  0
 15 11  1  0
 24 16  1  0
 23 19  1  0
 28 21  1  0
  3 29  1  0
  4 30  1  0
  4 31  1  0
  6 32  1  0
  7 33  1  0
  8 34  1  0
 12 35  1  0
 13 36  1  0
 14 37  1  0
 17 38  1  0
 18 39  1  0
 20 40  1  0
 24 41  1  0
 25 42  1  0
 25 43  1  0
 26 44  1  0
 26 45  1  0
 27 46  1  0
 27 47  1  0
 28 48  1  0
 28 49  1  0
M  END
>  <Energy>  (530) 
81.904686161989929

>  <compound_id>  (530) 
54518

>  <target_id>  (530) 
1

>  <reference_id>  (530) 
40

>  <inspiration_ids>  (530) 
[7, 40]

>  <energy_score>  (530) 
-39.965483491616226

>  <distance_score>  (530) 
5.778626617702334

>  <path>  (530) 
/opt/xchem-fragalysis-2/maxwin/BulkDock/SCRATCH/511025/C54518-P40/C54518-P40.minimised.mol

>  <scratch_subdir>  (530) 
/opt/xchem-fragalysis-2/maxwin/BulkDock/SCRATCH/511025/C54518-P40

>  <fragmenstein_runtime>  (530) 
16.78799533843994

>  <fragmenstein_outcome>  (530) 
too moved

>  <fragmenstein_mode>  (530) 
expansion

>  <fragmenstein_error>  (530) 


$$$$
C54522-P7
     RDKit          3D

 51 55  0  0  0  0  0  0  0  0999 V2000
   -3.4772   -0.9517   34.9667 O   0  0  0  0  0  0  0  0  0  0  0  0
   -4.1539   -0.9847   33.9795 C   0  0  0  0  0  0  0  0  0  0  0  0
   -5.5755   -0.8086   33.8062 N   0  0  0  0  0  0  0  0  0  0  0  0
   -6.5726   -0.6436   34.7204 N   0  0  0  0  0  0  0  0  0  0  0  0
   -7.3072    0.5324   35.1157 C   0  0  0  0  0  0  0  0  0  0  0  0
   -7.1756    1.6793   34.7993 O   0  0  0  0  0  0  0  0  0  0  0  0
   -8.4385    0.1862   35.9673 C   0  0  0  0  0  0  0  0  0  0  0  0
   -8.6826   -0.8159   36.8863 C   0  0  0  0  0  0  0  0  0  0  0  0
  -10.0617   -0.7169   37.2355 C   0  0  0  0  0  0  0  0  0  0  0  0
  -10.8506   -1.6161   38.0827 C   0  0  0  0  0  0  0  0  0  0  0  0
  -12.2333   -1.7548   37.8756 C   0  0  0  0  0  0  0  0  0  0  0  0
  -12.9906   -2.6336   38.6544 C   0  0  0  0  0  0  0  0  0  0  0  0
  -12.3736   -3.3871   39.6498 C   0  0  0  0  0  0  0  0  0  0  0  0
  -11.0032   -3.2589   39.8686 C   0  0  0  0  0  0  0  0  0  0  0  0
  -10.2465   -2.3721   39.0961 C   0  0  0  0  0  0  0  0  0  0  0  0
  -10.6135    0.3413   36.6225 N   0  0  0  0  0  0  0  0  0  0  0  0
   -9.5924    0.9232   35.9717 N   0  0  0  0  0  0  0  0  0  0  0  0
   -3.4184   -1.3255   32.6907 C   0  0  0  0  0  0  0  0  0  0  0  0
   -3.7919   -0.8396   31.4318 C   0  0  0  0  0  0  0  0  0  0  0  0
   -3.0993   -1.2045   30.2622 C   0  0  0  0  0  0  0  0  0  0  0  0
   -1.9989   -2.0582   30.3856 C   0  0  0  0  0  0  0  0  0  0  0  0
   -1.1366   -2.5476   29.4247 N   0  0  0  0  0  0  0  0  0  0  0  0
   -0.1622   -3.2850   30.0317 C   0  0  0  0  0  0  0  0  0  0  0  0
   -0.4301   -3.3486   31.3827 C   0  0  0  0  0  0  0  0  0  0  0  0
   -1.5778   -2.5491   31.6219 C   0  0  0  0  0  0  0  0  0  0  0  0
   -2.2889   -2.1648   32.7794 C   0  0  0  0  0  0  0  0  0  0  0  0
    0.4508   -4.0644   32.3527 C   0  0  0  0  0  0  0  0  0  0  0  0
    1.4877   -4.9365   31.6222 C   0  0  0  0  0  0  0  0  0  0  0  0
    2.0811   -4.2240   30.3935 C   0  0  0  0  0  0  0  0  0  0  0  0
    0.9985   -3.8994   29.3465 C   0  0  0  0  0  0  0  0  0  0  0  0
   -5.7925   -0.8205   32.8169 H   0  0  0  0  0  0  0  0  0  0  0  0
   -7.0141   -1.4602   35.1231 H   0  0  0  0  0  0  0  0  0  0  0  0
   -7.9678   -1.5474   37.2289 H   0  0  0  0  0  0  0  0  0  0  0  0
  -12.7309   -1.1725   37.1026 H   0  0  0  0  0  0  0  0  0  0  0  0
  -14.0614   -2.7180   38.4858 H   0  0  0  0  0  0  0  0  0  0  0  0
  -12.9587   -4.0659   40.2652 H   0  0  0  0  0  0  0  0  0  0  0  0
  -10.5195   -3.8466   40.6466 H   0  0  0  0  0  0  0  0  0  0  0  0
   -9.1850   -2.2791   39.3123 H   0  0  0  0  0  0  0  0  0  0  0  0
   -9.7635    1.7846   35.4616 H   0  0  0  0  0  0  0  0  0  0  0  0
   -4.6048   -0.1248   31.3246 H   0  0  0  0  0  0  0  0  0  0  0  0
   -3.3959   -0.8082   29.2953 H   0  0  0  0  0  0  0  0  0  0  0  0
   -1.2055   -2.3603   28.4315 H   0  0  0  0  0  0  0  0  0  0  0  0
   -1.9549   -2.5230   33.7518 H   0  0  0  0  0  0  0  0  0  0  0  0
    0.9734   -3.3208   32.9668 H   0  0  0  0  0  0  0  0  0  0  0  0
   -0.1468   -4.6880   33.0270 H   0  0  0  0  0  0  0  0  0  0  0  0
    1.0088   -5.8670   31.2927 H   0  0  0  0  0  0  0  0  0  0  0  0
    2.2872   -5.2140   32.3180 H   0  0  0  0  0  0  0  0  0  0  0  0
    2.5674   -3.2953   30.7198 H   0  0  0  0  0  0  0  0  0  0  0  0
    2.8602   -4.8450   29.9464 H   0  0  0  0  0  0  0  0  0  0  0  0
    1.4075   -3.2368   28.5767 H   0  0  0  0  0  0  0  0  0  0  0  0
    0.6530   -4.8157   28.8597 H   0  0  0  0  0  0  0  0  0  0  0  0
  1  2  2  0
  2  3  1  0
  3  4  1  0
  4  5  1  0
  5  6  2  0
  5  7  1  0
  7  8  2  0
  8  9  1  0
  9 10  1  0
 10 11  2  0
 11 12  1  0
 12 13  2  0
 13 14  1  0
 14 15  2  0
  9 16  2  0
 16 17  1  0
  2 18  1  0
 18 19  2  0
 19 20  1  0
 20 21  2  0
 21 22  1  0
 22 23  1  0
 23 24  2  0
 24 25  1  0
 25 26  2  0
 24 27  1  0
 27 28  1  0
 28 29  1  0
 29 30  1  0
 17  7  1  0
 26 18  1  0
 15 10  1  0
 25 21  1  0
 30 23  1  0
  3 31  1  0
  4 32  1  0
  8 33  1  0
 11 34  1  0
 12 35  1  0
 13 36  1  0
 14 37  1  0
 15 38  1  0
 17 39  1  0
 19 40  1  0
 20 41  1  0
 22 42  1  0
 26 43  1  0
 27 44  1  0
 27 45  1  0
 28 46  1  0
 28 47  1  0
 29 48  1  0
 29 49  1  0
 30 50  1  0
 30 51  1  0
M  END
>  <Energy>  (531) 
93.902526512157948

>  <compound_id>  (531) 
54522

>  <target_id>  (531) 
1

>  <reference_id>  (531) 
7

>  <inspiration_ids>  (531) 
[7, 40]

>  <energy_score>  (531) 
-29.64288642475617

>  <distance_score>  (531) 
4.724520963073385

>  <path>  (531) 
/opt/xchem-fragalysis-2/maxwin/BulkDock/SCRATCH/511025/C54522-P7/C54522-P7.minimised.mol

>  <scratch_subdir>  (531) 
/opt/xchem-fragalysis-2/maxwin/BulkDock/SCRATCH/511025/C54522-P7

>  <fragmenstein_runtime>  (531) 
21.271183252334595

>  <fragmenstein_outcome>  (531) 
too moved

>  <fragmenstein_mode>  (531) 
expansion

>  <fragmenstein_error>  (531) 


$$$$
C54522-P40
     RDKit          3D

 51 55  0  0  0  0  0  0  0  0999 V2000
   -1.9717   -2.4241   34.0071 O   0  0  0  0  0  0  0  0  0  0  0  0
   -2.6138   -2.3176   33.0265 C   0  0  0  0  0  0  0  0  0  0  0  0
   -4.1656   -2.0473   32.8404 N   0  0  0  0  0  0  0  0  0  0  0  0
   -5.2087   -1.9557   33.8047 N   0  0  0  0  0  0  0  0  0  0  0  0
   -5.8952   -0.6911   34.4531 C   0  0  0  0  0  0  0  0  0  0  0  0
   -5.6442    0.4506   34.3412 O   0  0  0  0  0  0  0  0  0  0  0  0
   -7.1216   -1.0439   35.2565 C   0  0  0  0  0  0  0  0  0  0  0  0
   -7.7675   -0.4060   36.3290 C   0  0  0  0  0  0  0  0  0  0  0  0
   -9.0031   -1.0973   36.5943 C   0  0  0  0  0  0  0  0  0  0  0  0
  -10.0567   -0.8320   37.5871 C   0  0  0  0  0  0  0  0  0  0  0  0
  -11.2121   -1.6455   37.6552 C   0  0  0  0  0  0  0  0  0  0  0  0
  -12.2218   -1.3823   38.5825 C   0  0  0  0  0  0  0  0  0  0  0  0
  -12.0966   -0.3062   39.4569 C   0  0  0  0  0  0  0  0  0  0  0  0
  -10.9635    0.5047   39.4062 C   0  0  0  0  0  0  0  0  0  0  0  0
   -9.9497    0.2449   38.4776 C   0  0  0  0  0  0  0  0  0  0  0  0
   -9.0993   -2.1254   35.7430 N   0  0  0  0  0  0  0  0  0  0  0  0
   -8.0807   -1.9463   34.8820 N   0  0  0  0  0  0  0  0  0  0  0  0
   -1.8798   -2.5767   31.6886 C   0  0  0  0  0  0  0  0  0  0  0  0
   -2.1435   -1.7124   30.6391 C   0  0  0  0  0  0  0  0  0  0  0  0
   -1.4515   -1.7961   29.4294 C   0  0  0  0  0  0  0  0  0  0  0  0
   -0.4472   -2.7487   29.2812 C   0  0  0  0  0  0  0  0  0  0  0  0
    0.4257   -2.8737   28.2295 N   0  0  0  0  0  0  0  0  0  0  0  0
    1.3415   -3.8315   28.5070 C   0  0  0  0  0  0  0  0  0  0  0  0
    0.9751   -4.4328   29.7021 C   0  0  0  0  0  0  0  0  0  0  0  0
   -0.1317   -3.6886   30.2593 C   0  0  0  0  0  0  0  0  0  0  0  0
   -0.8767   -3.6020   31.4938 C   0  0  0  0  0  0  0  0  0  0  0  0
    1.7937   -5.5422   30.2433 C   0  0  0  0  0  0  0  0  0  0  0  0
    3.2024   -5.5725   29.5844 C   0  0  0  0  0  0  0  0  0  0  0  0
    3.1758   -5.3880   28.0706 C   0  0  0  0  0  0  0  0  0  0  0  0
    2.6008   -4.0248   27.7414 C   0  0  0  0  0  0  0  0  0  0  0  0
   -4.4038   -2.0963   31.8558 H   0  0  0  0  0  0  0  0  0  0  0  0
   -5.7294   -2.7874   34.0500 H   0  0  0  0  0  0  0  0  0  0  0  0
   -7.3817    0.4650   36.8414 H   0  0  0  0  0  0  0  0  0  0  0  0
  -11.3212   -2.4986   36.9864 H   0  0  0  0  0  0  0  0  0  0  0  0
  -13.0997   -2.0228   38.6207 H   0  0  0  0  0  0  0  0  0  0  0  0
  -12.8803   -0.1021   40.1821 H   0  0  0  0  0  0  0  0  0  0  0  0
  -10.8666    1.3416   40.0935 H   0  0  0  0  0  0  0  0  0  0  0  0
   -9.0814    0.8976   38.4675 H   0  0  0  0  0  0  0  0  0  0  0  0
   -8.1298   -2.4316   33.9952 H   0  0  0  0  0  0  0  0  0  0  0  0
   -2.8558   -0.8966   30.7538 H   0  0  0  0  0  0  0  0  0  0  0  0
   -1.6629   -1.0848   28.6329 H   0  0  0  0  0  0  0  0  0  0  0  0
    0.4411   -2.2261   27.4517 H   0  0  0  0  0  0  0  0  0  0  0  0
   -0.6265   -4.2563   32.3262 H   0  0  0  0  0  0  0  0  0  0  0  0
    1.8906   -5.4666   31.3312 H   0  0  0  0  0  0  0  0  0  0  0  0
    1.2590   -6.4703   30.0104 H   0  0  0  0  0  0  0  0  0  0  0  0
    3.7083   -6.5186   29.7527 H   0  0  0  0  0  0  0  0  0  0  0  0
    3.8261   -4.7896   30.0358 H   0  0  0  0  0  0  0  0  0  0  0  0
    2.5724   -6.1819   27.6130 H   0  0  0  0  0  0  0  0  0  0  0  0
    4.1885   -5.4734   27.6608 H   0  0  0  0  0  0  0  0  0  0  0  0
    3.3126   -3.2431   28.0362 H   0  0  0  0  0  0  0  0  0  0  0  0
    2.4815   -3.9450   26.6665 H   0  0  0  0  0  0  0  0  0  0  0  0
  1  2  2  0
  2  3  1  0
  3  4  1  0
  4  5  1  0
  5  6  2  0
  5  7  1  0
  7  8  2  0
  8  9  1  0
  9 10  1  0
 10 11  2  0
 11 12  1  0
 12 13  2  0
 13 14  1  0
 14 15  2  0
  9 16  2  0
 16 17  1  0
  2 18  1  0
 18 19  2  0
 19 20  1  0
 20 21  2  0
 21 22  1  0
 22 23  1  0
 23 24  2  0
 24 25  1  0
 25 26  2  0
 24 27  1  0
 27 28  1  0
 28 29  1  0
 29 30  1  0
 17  7  1  0
 26 18  1  0
 15 10  1  0
 25 21  1  0
 30 23  1  0
  3 31  1  0
  4 32  1  0
  8 33  1  0
 11 34  1  0
 12 35  1  0
 13 36  1  0
 14 37  1  0
 15 38  1  0
 17 39  1  0
 19 40  1  0
 20 41  1  0
 22 42  1  0
 26 43  1  0
 27 44  1  0
 27 45  1  0
 28 46  1  0
 28 47  1  0
 29 48  1  0
 29 49  1  0
 30 50  1  0
 30 51  1  0
M  END
>  <Energy>  (532) 
139.29319197972399

>  <compound_id>  (532) 
54522

>  <target_id>  (532) 
1

>  <reference_id>  (532) 
40

>  <inspiration_ids>  (532) 
[7, 40]

>  <energy_score>  (532) 
41.79084834557477

>  <distance_score>  (532) 
3.7543010242354207

>  <path>  (532) 
/opt/xchem-fragalysis-2/maxwin/BulkDock/SCRATCH/511025/C54522-P40/C54522-P40.minimised.mol

>  <scratch_subdir>  (532) 
/opt/xchem-fragalysis-2/maxwin/BulkDock/SCRATCH/511025/C54522-P40

>  <fragmenstein_runtime>  (532) 
9.394623756408691

>  <fragmenstein_outcome>  (532) 
too moved

>  <fragmenstein_mode>  (532) 
expansion

>  <fragmenstein_error>  (532) 


$$$$
C54523-P7
     RDKit          3D

 46 49  0  0  0  0  0  0  0  0999 V2000
  -10.2834   -1.8660   38.1886 C   0  0  0  0  0  0  0  0  0  0  0  0
   -9.4037   -1.4888   37.1007 N   0  0  0  0  0  0  0  0  0  0  0  0
   -9.7577   -1.5407   35.7978 C   0  0  0  0  0  0  0  0  0  0  0  0
   -8.5932   -1.3245   35.0964 C   0  0  0  0  0  0  0  0  0  0  0  0
   -7.5556   -1.1325   36.0288 C   0  0  0  0  0  0  0  0  0  0  0  0
   -6.0243   -0.9034   35.7239 C   0  0  0  0  0  0  0  0  0  0  0  0
   -5.5863   -1.0518   34.2168 C   0  0  0  0  0  0  0  0  0  0  0  0
   -4.1872   -1.3438   33.7732 N   0  0  0  0  0  0  0  0  0  0  0  0
   -3.6575   -2.2659   32.6238 C   0  0  0  0  0  0  0  0  0  0  0  0
   -4.2354   -2.9926   31.9054 O   0  0  0  0  0  0  0  0  0  0  0  0
   -2.1641   -2.2015   32.2222 C   0  0  0  0  0  0  0  0  0  0  0  0
   -1.8466   -1.2097   31.2888 C   0  0  0  0  0  0  0  0  0  0  0  0
   -0.9406   -1.4158   30.2181 C   0  0  0  0  0  0  0  0  0  0  0  0
   -0.4164   -2.6959   30.0439 C   0  0  0  0  0  0  0  0  0  0  0  0
    0.1711   -3.2836   28.9341 N   0  0  0  0  0  0  0  0  0  0  0  0
    0.0904   -4.6352   29.1305 C   0  0  0  0  0  0  0  0  0  0  0  0
    0.0299   -4.8550   30.4895 C   0  0  0  0  0  0  0  0  0  0  0  0
   -0.5678   -3.6803   31.0154 C   0  0  0  0  0  0  0  0  0  0  0  0
   -1.4007   -3.4063   32.1420 C   0  0  0  0  0  0  0  0  0  0  0  0
    0.1038   -6.1991   31.0851 C   0  0  0  0  0  0  0  0  0  0  0  0
   -0.6910   -7.1840   30.2388 C   0  0  0  0  0  0  0  0  0  0  0  0
   -0.6093   -6.9909   28.6999 C   0  0  0  0  0  0  0  0  0  0  0  0
   -0.2919   -5.6153   28.1050 C   0  0  0  0  0  0  0  0  0  0  0  0
   -8.0676   -1.2765   37.2742 N   0  0  0  0  0  0  0  0  0  0  0  0
  -10.9405   -2.6735   37.8555 H   0  0  0  0  0  0  0  0  0  0  0  0
   -9.6773   -2.2037   39.0329 H   0  0  0  0  0  0  0  0  0  0  0  0
  -10.8647   -0.9843   38.4679 H   0  0  0  0  0  0  0  0  0  0  0  0
  -10.7656   -1.7665   35.4806 H   0  0  0  0  0  0  0  0  0  0  0  0
   -8.4653   -1.3524   34.0248 H   0  0  0  0  0  0  0  0  0  0  0  0
   -5.7763    0.1128   36.0554 H   0  0  0  0  0  0  0  0  0  0  0  0
   -5.4295   -1.5785   36.3434 H   0  0  0  0  0  0  0  0  0  0  0  0
   -6.1740   -1.8484   33.7546 H   0  0  0  0  0  0  0  0  0  0  0  0
   -5.8665   -0.1313   33.6904 H   0  0  0  0  0  0  0  0  0  0  0  0
   -3.4035   -0.9093   34.2476 H   0  0  0  0  0  0  0  0  0  0  0  0
   -2.4369   -0.2933   31.2735 H   0  0  0  0  0  0  0  0  0  0  0  0
   -0.8249   -0.6534   29.4527 H   0  0  0  0  0  0  0  0  0  0  0  0
    0.2329   -2.8261   28.0332 H   0  0  0  0  0  0  0  0  0  0  0  0
   -1.6046   -4.2242   32.8219 H   0  0  0  0  0  0  0  0  0  0  0  0
    1.1594   -6.4645   31.1317 H   0  0  0  0  0  0  0  0  0  0  0  0
   -0.2676   -6.2109   32.1156 H   0  0  0  0  0  0  0  0  0  0  0  0
   -0.4332   -8.2137   30.5030 H   0  0  0  0  0  0  0  0  0  0  0  0
   -1.7333   -7.1113   30.5569 H   0  0  0  0  0  0  0  0  0  0  0  0
   -1.6022   -7.2119   28.3275 H   0  0  0  0  0  0  0  0  0  0  0  0
    0.0322   -7.7467   28.2388 H   0  0  0  0  0  0  0  0  0  0  0  0
    0.3610   -5.6576   27.2385 H   0  0  0  0  0  0  0  0  0  0  0  0
   -1.2127   -5.2608   27.6576 H   0  0  0  0  0  0  0  0  0  0  0  0
  1  2  1  0
  2  3  1  0
  3  4  2  0
  4  5  1  0
  5  6  1  0
  6  7  1  0
  7  8  1  0
  8  9  1  0
  9 10  2  0
  9 11  1  0
 11 12  2  0
 12 13  1  0
 13 14  2  0
 14 15  1  0
 15 16  1  0
 16 17  2  0
 17 18  1  0
 18 19  2  0
 17 20  1  0
 20 21  1  0
 21 22  1  0
 22 23  1  0
  5 24  2  0
 24  2  1  0
 19 11  1  0
 18 14  1  0
 23 16  1  0
  1 25  1  0
  1 26  1  0
  1 27  1  0
  3 28  1  0
  4 29  1  0
  6 30  1  0
  6 31  1  0
  7 32  1  0
  7 33  1  0
  8 34  1  0
 12 35  1  0
 13 36  1  0
 15 37  1  0
 19 38  1  0
 20 39  1  0
 20 40  1  0
 21 41  1  0
 21 42  1  0
 22 43  1  0
 22 44  1  0
 23 45  1  0
 23 46  1  0
M  END
>  <Energy>  (533) 
111.19065069953722

>  <compound_id>  (533) 
54523

>  <target_id>  (533) 
1

>  <reference_id>  (533) 
7

>  <inspiration_ids>  (533) 
[7, 40]

>  <energy_score>  (533) 
55.11314653923648

>  <distance_score>  (533) 
4.053311164317448

>  <path>  (533) 
/opt/xchem-fragalysis-2/maxwin/BulkDock/SCRATCH/511025/C54523-P7/C54523-P7.minimised.mol

>  <scratch_subdir>  (533) 
/opt/xchem-fragalysis-2/maxwin/BulkDock/SCRATCH/511025/C54523-P7

>  <fragmenstein_runtime>  (533) 
8.634124279022217

>  <fragmenstein_outcome>  (533) 
too moved

>  <fragmenstein_mode>  (533) 
expansion

>  <fragmenstein_error>  (533) 


$$$$
C54523-P40
     RDKit          3D

 46 49  0  0  0  0  0  0  0  0999 V2000
  -10.7370   -2.5308   36.8333 C   0  0  0  0  0  0  0  0  0  0  0  0
   -9.5976   -1.7496   36.3824 N   0  0  0  0  0  0  0  0  0  0  0  0
   -9.4465   -0.4037   36.5127 C   0  0  0  0  0  0  0  0  0  0  0  0
   -8.2997   -0.0867   35.8116 C   0  0  0  0  0  0  0  0  0  0  0  0
   -7.7822   -1.3157   35.2900 C   0  0  0  0  0  0  0  0  0  0  0  0
   -6.6805   -1.5206   34.1758 C   0  0  0  0  0  0  0  0  0  0  0  0
   -5.1419   -1.5912   34.5076 C   0  0  0  0  0  0  0  0  0  0  0  0
   -4.1968   -1.9315   33.3602 N   0  0  0  0  0  0  0  0  0  0  0  0
   -2.6365   -2.2395   33.3667 C   0  0  0  0  0  0  0  0  0  0  0  0
   -1.8545   -2.1959   34.2477 O   0  0  0  0  0  0  0  0  0  0  0  0
   -2.0151   -2.5930   31.9839 C   0  0  0  0  0  0  0  0  0  0  0  0
   -2.2833   -1.7156   30.9495 C   0  0  0  0  0  0  0  0  0  0  0  0
   -1.6386   -1.8008   29.7092 C   0  0  0  0  0  0  0  0  0  0  0  0
   -0.6569   -2.7661   29.5089 C   0  0  0  0  0  0  0  0  0  0  0  0
    0.1490   -2.9171   28.4054 N   0  0  0  0  0  0  0  0  0  0  0  0
    1.1225   -3.8149   28.6871 C   0  0  0  0  0  0  0  0  0  0  0  0
    0.8110   -4.4168   29.8984 C   0  0  0  0  0  0  0  0  0  0  0  0
   -0.2988   -3.6959   30.4838 C   0  0  0  0  0  0  0  0  0  0  0  0
   -1.0061   -3.6079   31.7480 C   0  0  0  0  0  0  0  0  0  0  0  0
    1.6879   -5.4890   30.4285 C   0  0  0  0  0  0  0  0  0  0  0  0
    3.0763   -5.4753   29.7251 C   0  0  0  0  0  0  0  0  0  0  0  0
    3.0059   -5.2907   28.2141 C   0  0  0  0  0  0  0  0  0  0  0  0
    2.3795   -3.9479   27.9104 C   0  0  0  0  0  0  0  0  0  0  0  0
   -8.5622   -2.3353   35.7244 N   0  0  0  0  0  0  0  0  0  0  0  0
  -11.4992   -1.8510   37.2225 H   0  0  0  0  0  0  0  0  0  0  0  0
  -11.1355   -3.0813   35.9824 H   0  0  0  0  0  0  0  0  0  0  0  0
  -10.4069   -3.2025   37.6261 H   0  0  0  0  0  0  0  0  0  0  0  0
  -10.1640    0.2148   37.0323 H   0  0  0  0  0  0  0  0  0  0  0  0
   -7.9165    0.9069   35.6188 H   0  0  0  0  0  0  0  0  0  0  0  0
   -6.9373   -2.4348   33.6321 H   0  0  0  0  0  0  0  0  0  0  0  0
   -6.8223   -0.7075   33.4505 H   0  0  0  0  0  0  0  0  0  0  0  0
   -4.8039   -0.6268   34.9014 H   0  0  0  0  0  0  0  0  0  0  0  0
   -4.9553   -2.3343   35.2871 H   0  0  0  0  0  0  0  0  0  0  0  0
   -4.5494   -1.9878   32.4156 H   0  0  0  0  0  0  0  0  0  0  0  0
   -2.9688   -0.8857   31.1085 H   0  0  0  0  0  0  0  0  0  0  0  0
   -1.8733   -1.0809   28.9277 H   0  0  0  0  0  0  0  0  0  0  0  0
    0.1081   -2.3003   27.6033 H   0  0  0  0  0  0  0  0  0  0  0  0
   -0.7103   -4.2468   32.5779 H   0  0  0  0  0  0  0  0  0  0  0  0
    1.8171   -5.3981   31.5119 H   0  0  0  0  0  0  0  0  0  0  0  0
    1.1797   -6.4381   30.2247 H   0  0  0  0  0  0  0  0  0  0  0  0
    3.6149   -6.4059   29.8649 H   0  0  0  0  0  0  0  0  0  0  0  0
    3.6910   -4.6777   30.1629 H   0  0  0  0  0  0  0  0  0  0  0  0
    2.4180   -6.1031   27.7687 H   0  0  0  0  0  0  0  0  0  0  0  0
    4.0105   -5.3406   27.7791 H   0  0  0  0  0  0  0  0  0  0  0  0
    2.2505   -3.8564   26.8412 H   0  0  0  0  0  0  0  0  0  0  0  0
    3.0635   -3.1437   28.2107 H   0  0  0  0  0  0  0  0  0  0  0  0
  1  2  1  0
  2  3  1  0
  3  4  2  0
  4  5  1  0
  5  6  1  0
  6  7  1  0
  7  8  1  0
  8  9  1  0
  9 10  2  0
  9 11  1  0
 11 12  2  0
 12 13  1  0
 13 14  2  0
 14 15  1  0
 15 16  1  0
 16 17  2  0
 17 18  1  0
 18 19  2  0
 17 20  1  0
 20 21  1  0
 21 22  1  0
 22 23  1  0
  5 24  2  0
 24  2  1  0
 19 11  1  0
 18 14  1  0
 23 16  1  0
  1 25  1  0
  1 26  1  0
  1 27  1  0
  3 28  1  0
  4 29  1  0
  6 30  1  0
  6 31  1  0
  7 32  1  0
  7 33  1  0
  8 34  1  0
 12 35  1  0
 13 36  1  0
 15 37  1  0
 19 38  1  0
 20 39  1  0
 20 40  1  0
 21 41  1  0
 21 42  1  0
 22 43  1  0
 22 44  1  0
 23 45  1  0
 23 46  1  0
M  END
>  <Energy>  (534) 
75.343170057648337

>  <compound_id>  (534) 
54523

>  <target_id>  (534) 
1

>  <reference_id>  (534) 
40

>  <inspiration_ids>  (534) 
[7, 40]

>  <energy_score>  (534) 
19.265665897347787

>  <distance_score>  (534) 
3.6857053973282654

>  <path>  (534) 
/opt/xchem-fragalysis-2/maxwin/BulkDock/SCRATCH/511025/C54523-P40/C54523-P40.minimised.mol

>  <scratch_subdir>  (534) 
/opt/xchem-fragalysis-2/maxwin/BulkDock/SCRATCH/511025/C54523-P40

>  <fragmenstein_runtime>  (534) 
5.726060390472412

>  <fragmenstein_outcome>  (534) 
too moved

>  <fragmenstein_mode>  (534) 
expansion

>  <fragmenstein_error>  (534) 


$$$$
C51666-P7
     RDKit          3D

 49 52  0  0  0  0  0  0  0  0999 V2000
  -12.2382   -2.5070   37.1497 C   0  0  0  0  0  0  0  0  0  0  0  0
  -11.6115   -1.1713   36.7685 C   0  0  0  0  0  0  0  0  0  0  0  0
  -10.1235   -1.3289   36.4239 C   0  0  0  0  0  0  0  0  0  0  0  0
   -9.3862   -0.1106   36.0825 N   0  0  0  0  0  0  0  0  0  0  0  0
   -9.9538    1.0897   36.3260 N   0  0  0  0  0  0  0  0  0  0  0  0
   -9.0081    1.9682   36.0122 C   0  0  0  0  0  0  0  0  0  0  0  0
   -7.8434    1.3522   35.5273 C   0  0  0  0  0  0  0  0  0  0  0  0
   -8.0999   -0.0074   35.5327 C   0  0  0  0  0  0  0  0  0  0  0  0
   -7.2562   -1.1615   35.1993 C   0  0  0  0  0  0  0  0  0  0  0  0
   -7.6789   -2.2040   35.5967 O   0  0  0  0  0  0  0  0  0  0  0  0
   -6.0153   -0.8421   34.5347 N   0  0  0  0  0  0  0  0  0  0  0  0
   -4.8545   -1.6703   34.2303 C   0  0  0  0  0  0  0  0  0  0  0  0
   -4.1278   -1.6060   32.8968 C   0  0  0  0  0  0  0  0  0  0  0  0
   -4.7361   -1.2776   31.6873 C   0  0  0  0  0  0  0  0  0  0  0  0
   -4.0547   -1.4043   30.4562 C   0  0  0  0  0  0  0  0  0  0  0  0
   -2.7529   -1.9310   30.4507 C   0  0  0  0  0  0  0  0  0  0  0  0
   -1.9026   -2.2334   29.4018 N   0  0  0  0  0  0  0  0  0  0  0  0
   -0.7608   -2.8079   29.8881 C   0  0  0  0  0  0  0  0  0  0  0  0
   -0.8560   -2.8693   31.2632 C   0  0  0  0  0  0  0  0  0  0  0  0
   -2.1073   -2.2963   31.6300 C   0  0  0  0  0  0  0  0  0  0  0  0
   -2.7895   -2.0843   32.8510 C   0  0  0  0  0  0  0  0  0  0  0  0
    0.2240   -3.4491   32.1146 C   0  0  0  0  0  0  0  0  0  0  0  0
    1.2089   -4.2805   31.2685 C   0  0  0  0  0  0  0  0  0  0  0  0
    1.5906   -3.5655   29.9582 C   0  0  0  0  0  0  0  0  0  0  0  0
    0.3673   -3.3092   29.0576 C   0  0  0  0  0  0  0  0  0  0  0  0
  -13.3056   -2.3816   37.3557 H   0  0  0  0  0  0  0  0  0  0  0  0
  -12.1279   -3.2342   36.3401 H   0  0  0  0  0  0  0  0  0  0  0  0
  -11.7631   -2.9194   38.0456 H   0  0  0  0  0  0  0  0  0  0  0  0
  -12.1469   -0.7488   35.9104 H   0  0  0  0  0  0  0  0  0  0  0  0
  -11.7363   -0.4712   37.6028 H   0  0  0  0  0  0  0  0  0  0  0  0
   -9.5970   -1.7603   37.2813 H   0  0  0  0  0  0  0  0  0  0  0  0
  -10.0422   -1.9987   35.5631 H   0  0  0  0  0  0  0  0  0  0  0  0
   -9.2042    3.0221   36.1631 H   0  0  0  0  0  0  0  0  0  0  0  0
   -6.9212    1.8394   35.2486 H   0  0  0  0  0  0  0  0  0  0  0  0
   -6.0258    0.1314   34.2669 H   0  0  0  0  0  0  0  0  0  0  0  0
   -5.1719   -2.7047   34.3786 H   0  0  0  0  0  0  0  0  0  0  0  0
   -4.1371   -1.4361   35.0260 H   0  0  0  0  0  0  0  0  0  0  0  0
   -5.7693   -0.9338   31.6744 H   0  0  0  0  0  0  0  0  0  0  0  0
   -4.5523   -1.1411   29.5271 H   0  0  0  0  0  0  0  0  0  0  0  0
   -2.1345   -2.1384   28.4201 H   0  0  0  0  0  0  0  0  0  0  0  0
   -2.2887   -2.3740   33.7733 H   0  0  0  0  0  0  0  0  0  0  0  0
   -0.2034   -4.0784   32.9032 H   0  0  0  0  0  0  0  0  0  0  0  0
    0.7657   -2.6296   32.6021 H   0  0  0  0  0  0  0  0  0  0  0  0
    0.7545   -5.2498   31.0247 H   0  0  0  0  0  0  0  0  0  0  0  0
    2.1094   -4.4889   31.8571 H   0  0  0  0  0  0  0  0  0  0  0  0
    2.3298   -4.1586   29.4118 H   0  0  0  0  0  0  0  0  0  0  0  0
    2.0698   -2.6088   30.2037 H   0  0  0  0  0  0  0  0  0  0  0  0
    0.6276   -2.5918   28.2722 H   0  0  0  0  0  0  0  0  0  0  0  0
    0.0666   -4.2452   28.5722 H   0  0  0  0  0  0  0  0  0  0  0  0
  1  2  1  0
  2  3  1  0
  3  4  1  0
  4  5  1  0
  5  6  2  0
  6  7  1  0
  7  8  2  0
  8  9  1  0
  9 10  2  0
  9 11  1  0
 11 12  1  0
 12 13  1  0
 13 14  2  0
 14 15  1  0
 15 16  2  0
 16 17  1  0
 17 18  1  0
 18 19  2  0
 19 20  1  0
 20 21  2  0
 19 22  1  0
 22 23  1  0
 23 24  1  0
 24 25  1  0
  8  4  1  0
 21 13  1  0
 20 16  1  0
 25 18  1  0
  1 26  1  0
  1 27  1  0
  1 28  1  0
  2 29  1  0
  2 30  1  0
  3 31  1  0
  3 32  1  0
  6 33  1  0
  7 34  1  0
 11 35  1  0
 12 36  1  0
 12 37  1  0
 14 38  1  0
 15 39  1  0
 17 40  1  0
 21 41  1  0
 22 42  1  0
 22 43  1  0
 23 44  1  0
 23 45  1  0
 24 46  1  0
 24 47  1  0
 25 48  1  0
 25 49  1  0
M  END
>  <Energy>  (535) 
-4.9382394354878958

>  <compound_id>  (535) 
51666

>  <target_id>  (535) 
1

>  <reference_id>  (535) 
7

>  <inspiration_ids>  (535) 
[7, 40]

>  <energy_score>  (535) 
-26.03209328222485

>  <distance_score>  (535) 
5.111312901595052

>  <path>  (535) 
/opt/xchem-fragalysis-2/maxwin/BulkDock/SCRATCH/511025/C51666-P7/C51666-P7.minimised.mol

>  <scratch_subdir>  (535) 
/opt/xchem-fragalysis-2/maxwin/BulkDock/SCRATCH/511025/C51666-P7

>  <fragmenstein_runtime>  (535) 
12.334658861160278

>  <fragmenstein_outcome>  (535) 
too moved

>  <fragmenstein_mode>  (535) 
expansion

>  <fragmenstein_error>  (535) 


$$$$
C51666-P40
     RDKit          3D

 49 52  0  0  0  0  0  0  0  0999 V2000
  -11.3682   -3.1492   37.2930 C   0  0  0  0  0  0  0  0  0  0  0  0
  -10.7733   -2.1158   36.3285 C   0  0  0  0  0  0  0  0  0  0  0  0
   -9.2124   -2.1692   36.1740 C   0  0  0  0  0  0  0  0  0  0  0  0
   -8.5172   -0.9947   35.6075 N   0  0  0  0  0  0  0  0  0  0  0  0
   -9.1027    0.1760   35.9622 N   0  0  0  0  0  0  0  0  0  0  0  0
   -8.2516    1.1077   35.5759 C   0  0  0  0  0  0  0  0  0  0  0  0
   -7.1020    0.5707   34.9784 C   0  0  0  0  0  0  0  0  0  0  0  0
   -7.2403   -0.8052   34.9222 C   0  0  0  0  0  0  0  0  0  0  0  0
   -6.2651   -1.8592   34.3888 C   0  0  0  0  0  0  0  0  0  0  0  0
   -6.6017   -2.9261   34.7328 O   0  0  0  0  0  0  0  0  0  0  0  0
   -4.9639   -1.3980   33.5964 N   0  0  0  0  0  0  0  0  0  0  0  0
   -3.7393   -2.2004   33.1500 C   0  0  0  0  0  0  0  0  0  0  0  0
   -2.6680   -2.1524   31.9943 C   0  0  0  0  0  0  0  0  0  0  0  0
   -2.5144   -1.0525   31.1742 C   0  0  0  0  0  0  0  0  0  0  0  0
   -1.5956   -1.0288   30.0979 C   0  0  0  0  0  0  0  0  0  0  0  0
   -0.7921   -2.1392   29.8180 C   0  0  0  0  0  0  0  0  0  0  0  0
    0.1365   -2.3074   28.8154 N   0  0  0  0  0  0  0  0  0  0  0  0
    0.8038   -3.4713   29.0188 C   0  0  0  0  0  0  0  0  0  0  0  0
    0.1290   -4.1849   29.9948 C   0  0  0  0  0  0  0  0  0  0  0  0
   -0.8283   -3.2890   30.6003 C   0  0  0  0  0  0  0  0  0  0  0  0
   -1.7375   -3.2556   31.7270 C   0  0  0  0  0  0  0  0  0  0  0  0
    0.4726   -5.5928   30.2778 C   0  0  0  0  0  0  0  0  0  0  0  0
    1.7508   -6.0328   29.5293 C   0  0  0  0  0  0  0  0  0  0  0  0
    2.1104   -5.3459   28.2091 C   0  0  0  0  0  0  0  0  0  0  0  0
    2.0556   -3.8361   28.3262 C   0  0  0  0  0  0  0  0  0  0  0  0
  -12.4102   -2.9145   37.5248 H   0  0  0  0  0  0  0  0  0  0  0  0
  -11.3339   -4.1382   36.8392 H   0  0  0  0  0  0  0  0  0  0  0  0
  -10.8115   -3.1712   38.2346 H   0  0  0  0  0  0  0  0  0  0  0  0
  -11.2069   -2.2327   35.3321 H   0  0  0  0  0  0  0  0  0  0  0  0
  -11.0767   -1.1276   36.6914 H   0  0  0  0  0  0  0  0  0  0  0  0
   -8.9164   -3.0161   35.5710 H   0  0  0  0  0  0  0  0  0  0  0  0
   -8.7720   -2.2384   37.1745 H   0  0  0  0  0  0  0  0  0  0  0  0
   -8.4877    2.1495   35.7473 H   0  0  0  0  0  0  0  0  0  0  0  0
   -6.2637    1.1400   34.6044 H   0  0  0  0  0  0  0  0  0  0  0  0
   -4.9443   -0.3893   33.5336 H   0  0  0  0  0  0  0  0  0  0  0  0
   -4.2560   -3.1275   32.9134 H   0  0  0  0  0  0  0  0  0  0  0  0
   -3.1560   -2.2792   34.0723 H   0  0  0  0  0  0  0  0  0  0  0  0
   -3.1358   -0.1721   31.3319 H   0  0  0  0  0  0  0  0  0  0  0  0
   -1.5417   -0.1415   29.4704 H   0  0  0  0  0  0  0  0  0  0  0  0
    0.3408   -1.6138   28.1067 H   0  0  0  0  0  0  0  0  0  0  0  0
   -1.6807   -4.0823   32.4306 H   0  0  0  0  0  0  0  0  0  0  0  0
   -0.3608   -6.2283   29.9555 H   0  0  0  0  0  0  0  0  0  0  0  0
    0.5990   -5.7582   31.3536 H   0  0  0  0  0  0  0  0  0  0  0  0
    2.5993   -5.8667   30.2012 H   0  0  0  0  0  0  0  0  0  0  0  0
    1.6573   -7.0978   29.3134 H   0  0  0  0  0  0  0  0  0  0  0  0
    3.1102   -5.6602   27.8873 H   0  0  0  0  0  0  0  0  0  0  0  0
    1.4254   -5.6742   27.4317 H   0  0  0  0  0  0  0  0  0  0  0  0
    2.1432   -3.3672   27.3452 H   0  0  0  0  0  0  0  0  0  0  0  0
    2.9057   -3.4827   28.9229 H   0  0  0  0  0  0  0  0  0  0  0  0
  1  2  1  0
  2  3  1  0
  3  4  1  0
  4  5  1  0
  5  6  2  0
  6  7  1  0
  7  8  2  0
  8  9  1  0
  9 10  2  0
  9 11  1  0
 11 12  1  0
 12 13  1  0
 13 14  2  0
 14 15  1  0
 15 16  2  0
 16 17  1  0
 17 18  1  0
 18 19  2  0
 19 20  1  0
 20 21  2  0
 19 22  1  0
 22 23  1  0
 23 24  1  0
 24 25  1  0
  8  4  1  0
 21 13  1  0
 20 16  1  0
 25 18  1  0
  1 26  1  0
  1 27  1  0
  1 28  1  0
  2 29  1  0
  2 30  1  0
  3 31  1  0
  3 32  1  0
  6 33  1  0
  7 34  1  0
 11 35  1  0
 12 36  1  0
 12 37  1  0
 14 38  1  0
 15 39  1  0
 17 40  1  0
 21 41  1  0
 22 42  1  0
 22 43  1  0
 23 44  1  0
 23 45  1  0
 24 46  1  0
 24 47  1  0
 25 48  1  0
 25 49  1  0
M  END
>  <Energy>  (536) 
57.191927537922965

>  <compound_id>  (536) 
51666

>  <target_id>  (536) 
1

>  <reference_id>  (536) 
40

>  <inspiration_ids>  (536) 
[7, 40]

>  <energy_score>  (536) 
34.00116015115384

>  <distance_score>  (536) 
4.3796364977782245

>  <path>  (536) 
/opt/xchem-fragalysis-2/maxwin/BulkDock/SCRATCH/511025/C51666-P40/C51666-P40.minimised.mol

>  <scratch_subdir>  (536) 
/opt/xchem-fragalysis-2/maxwin/BulkDock/SCRATCH/511025/C51666-P40

>  <fragmenstein_runtime>  (536) 
6.923719167709351

>  <fragmenstein_outcome>  (536) 
too moved

>  <fragmenstein_mode>  (536) 
expansion

>  <fragmenstein_error>  (536) 


$$$$
C54528-P7
     RDKit          3D

 43 46  0  0  0  0  0  0  0  0999 V2000
   -2.7979   -0.2354   35.6136 C   0  0  0  0  0  0  0  0  0  0  0  0
   -3.9466   -0.6025   34.7053 N   0  0  0  0  0  0  0  0  0  0  0  0
   -4.7513   -0.2760   35.9572 C   0  0  0  0  0  0  0  0  0  0  0  0
   -6.2584   -0.4722   35.7458 C   0  0  0  0  0  0  0  0  0  0  0  0
   -7.2937    0.2040   36.4556 C   0  0  0  0  0  0  0  0  0  0  0  0
   -8.4672   -0.3542   36.0129 C   0  0  0  0  0  0  0  0  0  0  0  0
   -8.1026   -1.2672   35.0715 N   0  0  0  0  0  0  0  0  0  0  0  0
   -6.7768   -1.4083   34.9390 N   0  0  0  0  0  0  0  0  0  0  0  0
   -3.8326    0.0893   33.4659 C   0  0  0  0  0  0  0  0  0  0  0  0
   -4.2730    1.1559   33.1225 O   0  0  0  0  0  0  0  0  0  0  0  0
   -2.9288   -0.6158   32.4540 C   0  0  0  0  0  0  0  0  0  0  0  0
   -2.6379    0.0435   31.2485 C   0  0  0  0  0  0  0  0  0  0  0  0
   -1.7825   -0.4975   30.2761 C   0  0  0  0  0  0  0  0  0  0  0  0
   -1.1637   -1.7107   30.5701 C   0  0  0  0  0  0  0  0  0  0  0  0
   -0.2327   -2.4263   29.8466 N   0  0  0  0  0  0  0  0  0  0  0  0
    0.2564   -3.4297   30.6314 C   0  0  0  0  0  0  0  0  0  0  0  0
   -0.4867   -3.4820   31.7930 C   0  0  0  0  0  0  0  0  0  0  0  0
   -1.3936   -2.3915   31.7671 C   0  0  0  0  0  0  0  0  0  0  0  0
   -2.3175   -1.8576   32.6967 C   0  0  0  0  0  0  0  0  0  0  0  0
   -0.1808   -4.4389   32.8941 C   0  0  0  0  0  0  0  0  0  0  0  0
    1.3004   -4.8436   32.8227 C   0  0  0  0  0  0  0  0  0  0  0  0
    1.6777   -5.3025   31.4020 C   0  0  0  0  0  0  0  0  0  0  0  0
    1.4778   -4.2146   30.3356 C   0  0  0  0  0  0  0  0  0  0  0  0
   -1.8824   -0.3616   35.0179 H   0  0  0  0  0  0  0  0  0  0  0  0
   -2.6381   -0.9281   36.4531 H   0  0  0  0  0  0  0  0  0  0  0  0
   -2.7522    0.8300   35.8888 H   0  0  0  0  0  0  0  0  0  0  0  0
   -4.5342   -0.9545   36.7985 H   0  0  0  0  0  0  0  0  0  0  0  0
   -4.6766    0.7900   36.2301 H   0  0  0  0  0  0  0  0  0  0  0  0
   -7.1832    0.9845   37.1954 H   0  0  0  0  0  0  0  0  0  0  0  0
   -9.5025   -0.1621   36.2532 H   0  0  0  0  0  0  0  0  0  0  0  0
   -8.6996   -1.8370   34.4818 H   0  0  0  0  0  0  0  0  0  0  0  0
   -3.0962    1.0109   31.0443 H   0  0  0  0  0  0  0  0  0  0  0  0
   -1.5862    0.0344   29.3509 H   0  0  0  0  0  0  0  0  0  0  0  0
    0.1334   -2.1473   28.9451 H   0  0  0  0  0  0  0  0  0  0  0  0
   -2.4874   -2.3802   33.6313 H   0  0  0  0  0  0  0  0  0  0  0  0
   -0.8166   -5.3259   32.7883 H   0  0  0  0  0  0  0  0  0  0  0  0
   -0.3899   -3.9923   33.8721 H   0  0  0  0  0  0  0  0  0  0  0  0
    1.9341   -3.9930   33.1055 H   0  0  0  0  0  0  0  0  0  0  0  0
    1.4945   -5.6396   33.5481 H   0  0  0  0  0  0  0  0  0  0  0  0
    1.0499   -6.1629   31.1428 H   0  0  0  0  0  0  0  0  0  0  0  0
    2.7200   -5.6344   31.3861 H   0  0  0  0  0  0  0  0  0  0  0  0
    1.4109   -4.6602   29.3419 H   0  0  0  0  0  0  0  0  0  0  0  0
    2.3444   -3.5426   30.3399 H   0  0  0  0  0  0  0  0  0  0  0  0
  1  2  1  0
  2  3  1  0
  3  4  1  0
  4  5  1  0
  5  6  2  0
  6  7  1  0
  7  8  1  0
  2  9  1  0
  9 10  2  0
  9 11  1  0
 11 12  2  0
 12 13  1  0
 13 14  2  0
 14 15  1  0
 15 16  1  0
 16 17  2  0
 17 18  1  0
 18 19  2  0
 17 20  1  0
 20 21  1  0
 21 22  1  0
 22 23  1  0
  8  4  2  0
 19 11  1  0
 18 14  1  0
 23 16  1  0
  1 24  1  0
  1 25  1  0
  1 26  1  0
  3 27  1  0
  3 28  1  0
  5 29  1  0
  6 30  1  0
  7 31  1  0
 12 32  1  0
 13 33  1  0
 15 34  1  0
 19 35  1  0
 20 36  1  0
 20 37  1  0
 21 38  1  0
 21 39  1  0
 22 40  1  0
 22 41  1  0
 23 42  1  0
 23 43  1  0
M  END
>  <Energy>  (537) 
114.11049344857602

>  <compound_id>  (537) 
54528

>  <target_id>  (537) 
1

>  <reference_id>  (537) 
7

>  <inspiration_ids>  (537) 
[7, 40]

>  <energy_score>  (537) 
39.72687902636926

>  <distance_score>  (537) 
5.4635395748981175

>  <path>  (537) 
/opt/xchem-fragalysis-2/maxwin/BulkDock/SCRATCH/511025/C54528-P7/C54528-P7.minimised.mol

>  <scratch_subdir>  (537) 
/opt/xchem-fragalysis-2/maxwin/BulkDock/SCRATCH/511025/C54528-P7

>  <fragmenstein_runtime>  (537) 
8.791922807693481

>  <fragmenstein_outcome>  (537) 
too moved

>  <fragmenstein_mode>  (537) 
expansion

>  <fragmenstein_error>  (537) 


$$$$
C54528-P40
     RDKit          3D

 43 46  0  0  0  0  0  0  0  0999 V2000
   -2.6156   -0.9254   34.2354 C   0  0  0  0  0  0  0  0  0  0  0  0
   -3.0495   -1.0960   32.8040 N   0  0  0  0  0  0  0  0  0  0  0  0
   -4.1588   -0.1469   33.2578 C   0  0  0  0  0  0  0  0  0  0  0  0
   -5.3972   -0.6883   33.9674 C   0  0  0  0  0  0  0  0  0  0  0  0
   -5.9637   -0.2055   35.1844 C   0  0  0  0  0  0  0  0  0  0  0  0
   -7.1590   -0.8695   35.3233 C   0  0  0  0  0  0  0  0  0  0  0  0
   -7.2614   -1.6664   34.2233 N   0  0  0  0  0  0  0  0  0  0  0  0
   -6.1829   -1.6299   33.4259 N   0  0  0  0  0  0  0  0  0  0  0  0
   -1.9391   -0.8825   31.9232 C   0  0  0  0  0  0  0  0  0  0  0  0
   -1.5478    0.1224   31.3886 O   0  0  0  0  0  0  0  0  0  0  0  0
   -1.1838   -2.1487   31.5392 C   0  0  0  0  0  0  0  0  0  0  0  0
   -1.3627   -3.3561   32.2116 C   0  0  0  0  0  0  0  0  0  0  0  0
   -0.6819   -4.5296   31.8513 C   0  0  0  0  0  0  0  0  0  0  0  0
    0.2259   -4.4548   30.7941 C   0  0  0  0  0  0  0  0  0  0  0  0
    1.0208   -5.4312   30.2371 N   0  0  0  0  0  0  0  0  0  0  0  0
    1.8707   -4.8758   29.3258 C   0  0  0  0  0  0  0  0  0  0  0  0
    1.5635   -3.5338   29.2211 C   0  0  0  0  0  0  0  0  0  0  0  0
    0.4917   -3.2625   30.1228 C   0  0  0  0  0  0  0  0  0  0  0  0
   -0.2377   -2.1058   30.4914 C   0  0  0  0  0  0  0  0  0  0  0  0
    2.3660   -2.5862   28.3907 C   0  0  0  0  0  0  0  0  0  0  0  0
    3.3979   -3.3232   27.5101 C   0  0  0  0  0  0  0  0  0  0  0  0
    4.0387   -4.5348   28.2080 C   0  0  0  0  0  0  0  0  0  0  0  0
    2.9792   -5.5712   28.6211 C   0  0  0  0  0  0  0  0  0  0  0  0
   -3.2908   -1.3637   34.9810 H   0  0  0  0  0  0  0  0  0  0  0  0
   -2.2458    0.0809   34.4878 H   0  0  0  0  0  0  0  0  0  0  0  0
   -1.7052   -1.5319   34.3495 H   0  0  0  0  0  0  0  0  0  0  0  0
   -3.8239    0.8306   33.6470 H   0  0  0  0  0  0  0  0  0  0  0  0
   -4.5561    0.1777   32.2808 H   0  0  0  0  0  0  0  0  0  0  0  0
   -5.5637    0.5560   35.8387 H   0  0  0  0  0  0  0  0  0  0  0  0
   -7.9445   -0.8169   36.0626 H   0  0  0  0  0  0  0  0  0  0  0  0
   -8.0422   -2.2475   33.9376 H   0  0  0  0  0  0  0  0  0  0  0  0
   -2.0429   -3.3970   33.0532 H   0  0  0  0  0  0  0  0  0  0  0  0
   -0.8508   -5.4516   32.3987 H   0  0  0  0  0  0  0  0  0  0  0  0
    1.0173   -6.3911   30.5433 H   0  0  0  0  0  0  0  0  0  0  0  0
   -0.0525   -1.1709   29.9668 H   0  0  0  0  0  0  0  0  0  0  0  0
    2.9022   -1.9078   29.0661 H   0  0  0  0  0  0  0  0  0  0  0  0
    1.7106   -1.9699   27.7674 H   0  0  0  0  0  0  0  0  0  0  0  0
    2.9110   -3.6888   26.6015 H   0  0  0  0  0  0  0  0  0  0  0  0
    4.1733   -2.6182   27.1900 H   0  0  0  0  0  0  0  0  0  0  0  0
    4.5869   -4.1901   29.0942 H   0  0  0  0  0  0  0  0  0  0  0  0
    4.7688   -5.0061   27.5404 H   0  0  0  0  0  0  0  0  0  0  0  0
    3.4426   -6.3299   29.2570 H   0  0  0  0  0  0  0  0  0  0  0  0
    2.5836   -6.0752   27.7317 H   0  0  0  0  0  0  0  0  0  0  0  0
  1  2  1  0
  2  3  1  0
  3  4  1  0
  4  5  1  0
  5  6  2  0
  6  7  1  0
  7  8  1  0
  2  9  1  0
  9 10  2  0
  9 11  1  0
 11 12  2  0
 12 13  1  0
 13 14  2  0
 14 15  1  0
 15 16  1  0
 16 17  2  0
 17 18  1  0
 18 19  2  0
 17 20  1  0
 20 21  1  0
 21 22  1  0
 22 23  1  0
  8  4  2  0
 19 11  1  0
 18 14  1  0
 23 16  1  0
  1 24  1  0
  1 25  1  0
  1 26  1  0
  3 27  1  0
  3 28  1  0
  5 29  1  0
  6 30  1  0
  7 31  1  0
 12 32  1  0
 13 33  1  0
 15 34  1  0
 19 35  1  0
 20 36  1  0
 20 37  1  0
 21 38  1  0
 21 39  1  0
 22 40  1  0
 22 41  1  0
 23 42  1  0
 23 43  1  0
M  END
>  <Energy>  (538) 
116.26400284940965

>  <compound_id>  (538) 
54528

>  <target_id>  (538) 
1

>  <reference_id>  (538) 
40

>  <inspiration_ids>  (538) 
[7, 40]

>  <energy_score>  (538) 
41.880388427197886

>  <distance_score>  (538) 
4.978519403375121

>  <path>  (538) 
/opt/xchem-fragalysis-2/maxwin/BulkDock/SCRATCH/511025/C54528-P40/C54528-P40.minimised.mol

>  <scratch_subdir>  (538) 
/opt/xchem-fragalysis-2/maxwin/BulkDock/SCRATCH/511025/C54528-P40

>  <fragmenstein_runtime>  (538) 
9.180095672607422

>  <fragmenstein_outcome>  (538) 
too moved

>  <fragmenstein_mode>  (538) 
expansion

>  <fragmenstein_error>  (538) 


$$$$
C54515-P7
     RDKit          3D

 48 51  0  0  0  0  0  0  0  0999 V2000
  -10.2113   -0.3719   37.0980 N   0  0  0  0  0  0  0  0  0  0  0  0
   -9.0525   -0.6068   36.4574 C   0  0  0  0  0  0  0  0  0  0  0  0
   -7.8191   -0.0096   36.5274 C   0  0  0  0  0  0  0  0  0  0  0  0
   -6.9420   -0.7199   35.6121 C   0  0  0  0  0  0  0  0  0  0  0  0
   -5.4433   -0.4493   35.4234 C   0  0  0  0  0  0  0  0  0  0  0  0
   -5.0176    0.4233   36.0801 O   0  0  0  0  0  0  0  0  0  0  0  0
   -4.7093   -1.4476   34.4644 N   0  0  0  0  0  0  0  0  0  0  0  0
   -3.2617   -1.6337   34.1927 C   0  0  0  0  0  0  0  0  0  0  0  0
   -2.7019   -2.0529   32.8157 C   0  0  0  0  0  0  0  0  0  0  0  0
   -3.0843   -1.3483   31.6767 C   0  0  0  0  0  0  0  0  0  0  0  0
   -2.4186   -1.4697   30.4482 C   0  0  0  0  0  0  0  0  0  0  0  0
   -1.3541   -2.3532   30.3657 C   0  0  0  0  0  0  0  0  0  0  0  0
   -0.5323   -2.6185   29.3090 N   0  0  0  0  0  0  0  0  0  0  0  0
    0.1961   -3.7113   29.6286 C   0  0  0  0  0  0  0  0  0  0  0  0
    0.0330   -4.0368   30.9466 C   0  0  0  0  0  0  0  0  0  0  0  0
   -0.9581   -3.1478   31.4371 C   0  0  0  0  0  0  0  0  0  0  0  0
   -1.6172   -2.9661   32.6778 C   0  0  0  0  0  0  0  0  0  0  0  0
    0.5935   -5.2317   31.6243 C   0  0  0  0  0  0  0  0  0  0  0  0
   -0.4571   -6.3191   31.6386 C   0  0  0  0  0  0  0  0  0  0  0  0
   -0.7674   -7.1121   30.3699 C   0  0  0  0  0  0  0  0  0  0  0  0
   -0.5204   -6.8042   28.8718 C   0  0  0  0  0  0  0  0  0  0  0  0
   -0.2274   -5.4965   28.1359 C   0  0  0  0  0  0  0  0  0  0  0  0
    0.8281   -4.4981   28.6103 C   0  0  0  0  0  0  0  0  0  0  0  0
   -7.6531   -1.6918   35.0077 N   0  0  0  0  0  0  0  0  0  0  0  0
   -8.9108   -1.5660   35.5019 N   0  0  0  0  0  0  0  0  0  0  0  0
  -10.9565   -1.0625   37.1468 H   0  0  0  0  0  0  0  0  0  0  0  0
  -10.2092    0.2439   37.9114 H   0  0  0  0  0  0  0  0  0  0  0  0
   -7.5241    0.8137   37.1637 H   0  0  0  0  0  0  0  0  0  0  0  0
   -5.3713   -2.1315   34.1155 H   0  0  0  0  0  0  0  0  0  0  0  0
   -2.7928   -0.6725   34.4409 H   0  0  0  0  0  0  0  0  0  0  0  0
   -2.9065   -2.3217   34.9655 H   0  0  0  0  0  0  0  0  0  0  0  0
   -3.8846   -0.6117   31.7534 H   0  0  0  0  0  0  0  0  0  0  0  0
   -2.7204   -0.8645   29.5987 H   0  0  0  0  0  0  0  0  0  0  0  0
   -0.6192   -2.2106   28.3862 H   0  0  0  0  0  0  0  0  0  0  0  0
   -1.2592   -3.5152   33.5459 H   0  0  0  0  0  0  0  0  0  0  0  0
    1.5179   -5.5872   31.1604 H   0  0  0  0  0  0  0  0  0  0  0  0
    0.8527   -4.9621   32.6557 H   0  0  0  0  0  0  0  0  0  0  0  0
   -1.3987   -5.8935   32.0059 H   0  0  0  0  0  0  0  0  0  0  0  0
   -0.2014   -7.0417   32.4206 H   0  0  0  0  0  0  0  0  0  0  0  0
   -1.8412   -7.2856   30.4647 H   0  0  0  0  0  0  0  0  0  0  0  0
   -0.3846   -8.1254   30.5401 H   0  0  0  0  0  0  0  0  0  0  0  0
    0.1564   -7.5528   28.4579 H   0  0  0  0  0  0  0  0  0  0  0  0
   -1.4556   -7.1165   28.3979 H   0  0  0  0  0  0  0  0  0  0  0  0
    0.0231   -5.7860   27.1078 H   0  0  0  0  0  0  0  0  0  0  0  0
   -1.1681   -4.9685   28.0281 H   0  0  0  0  0  0  0  0  0  0  0  0
    1.1631   -3.8685   27.7797 H   0  0  0  0  0  0  0  0  0  0  0  0
    1.7187   -4.9029   29.0897 H   0  0  0  0  0  0  0  0  0  0  0  0
   -9.6412   -2.1468   35.1124 H   0  0  0  0  0  0  0  0  0  0  0  0
  1  2  1  0
  2  3  2  0
  3  4  1  0
  4  5  1  0
  5  6  2  0
  5  7  1  0
  7  8  1  0
  8  9  1  0
  9 10  2  0
 10 11  1  0
 11 12  2  0
 12 13  1  0
 13 14  1  0
 14 15  2  0
 15 16  1  0
 16 17  2  0
 15 18  1  0
 18 19  1  0
 19 20  1  0
 20 21  1  0
 21 22  1  0
 22 23  1  0
  4 24  2  0
 24 25  1  0
 25  2  1  0
 17  9  1  0
 16 12  1  0
 23 14  1  0
  1 26  1  0
  1 27  1  0
  3 28  1  0
  7 29  1  0
  8 30  1  0
  8 31  1  0
 10 32  1  0
 11 33  1  0
 13 34  1  0
 17 35  1  0
 18 36  1  0
 18 37  1  0
 19 38  1  0
 19 39  1  0
 20 40  1  0
 20 41  1  0
 21 42  1  0
 21 43  1  0
 22 44  1  0
 22 45  1  0
 23 46  1  0
 23 47  1  0
 25 48  1  0
M  END
>  <Energy>  (539) 
109.72281843574136

>  <compound_id>  (539) 
54515

>  <target_id>  (539) 
1

>  <reference_id>  (539) 
7

>  <inspiration_ids>  (539) 
[7, 40]

>  <energy_score>  (539) 
-1.1485418829418563

>  <distance_score>  (539) 
4.563435002370091

>  <path>  (539) 
/opt/xchem-fragalysis-2/maxwin/BulkDock/SCRATCH/511025/C54515-P7/C54515-P7.minimised.mol

>  <scratch_subdir>  (539) 
/opt/xchem-fragalysis-2/maxwin/BulkDock/SCRATCH/511025/C54515-P7

>  <fragmenstein_runtime>  (539) 
9.68832540512085

>  <fragmenstein_outcome>  (539) 
too moved

>  <fragmenstein_mode>  (539) 
expansion

>  <fragmenstein_error>  (539) 


$$$$
C54515-P40
     RDKit          3D

 48 51  0  0  0  0  0  0  0  0999 V2000
   -9.3831   -1.5143   36.0987 N   0  0  0  0  0  0  0  0  0  0  0  0
   -8.1149   -1.4545   35.6593 C   0  0  0  0  0  0  0  0  0  0  0  0
   -7.5298   -1.7665   34.4564 C   0  0  0  0  0  0  0  0  0  0  0  0
   -6.0975   -1.6519   34.5992 C   0  0  0  0  0  0  0  0  0  0  0  0
   -5.0056   -2.1010   33.5775 C   0  0  0  0  0  0  0  0  0  0  0  0
   -5.3471   -2.6544   32.6023 O   0  0  0  0  0  0  0  0  0  0  0  0
   -3.5753   -1.7906   34.1136 N   0  0  0  0  0  0  0  0  0  0  0  0
   -2.2293   -2.1950   33.5898 C   0  0  0  0  0  0  0  0  0  0  0  0
   -1.8300   -2.7942   32.2151 C   0  0  0  0  0  0  0  0  0  0  0  0
   -2.3986   -2.3056   31.0485 C   0  0  0  0  0  0  0  0  0  0  0  0
   -1.8359   -2.5457   29.7820 C   0  0  0  0  0  0  0  0  0  0  0  0
   -0.6491   -3.2727   29.6803 C   0  0  0  0  0  0  0  0  0  0  0  0
    0.1240   -3.5202   28.5748 N   0  0  0  0  0  0  0  0  0  0  0  0
    1.3697   -3.9508   28.9555 C   0  0  0  0  0  0  0  0  0  0  0  0
    1.3028   -4.2157   30.3228 C   0  0  0  0  0  0  0  0  0  0  0  0
   -0.0086   -3.7978   30.7868 C   0  0  0  0  0  0  0  0  0  0  0  0
   -0.6415   -3.5978   32.0642 C   0  0  0  0  0  0  0  0  0  0  0  0
    2.4285   -4.5750   31.2444 C   0  0  0  0  0  0  0  0  0  0  0  0
    3.8133   -4.0342   30.8592 C   0  0  0  0  0  0  0  0  0  0  0  0
    4.6572   -4.8260   29.8372 C   0  0  0  0  0  0  0  0  0  0  0  0
    3.9290   -5.7708   28.8805 C   0  0  0  0  0  0  0  0  0  0  0  0
    3.2507   -5.1016   27.6932 C   0  0  0  0  0  0  0  0  0  0  0  0
    2.5233   -3.8129   28.0163 C   0  0  0  0  0  0  0  0  0  0  0  0
   -5.8523   -1.1548   35.8356 N   0  0  0  0  0  0  0  0  0  0  0  0
   -7.0731   -1.0395   36.4284 N   0  0  0  0  0  0  0  0  0  0  0  0
  -10.0870   -1.9940   35.5366 H   0  0  0  0  0  0  0  0  0  0  0  0
   -9.6481   -1.4181   37.0756 H   0  0  0  0  0  0  0  0  0  0  0  0
   -8.0240   -2.1347   33.5774 H   0  0  0  0  0  0  0  0  0  0  0  0
   -3.6432   -1.2212   34.9510 H   0  0  0  0  0  0  0  0  0  0  0  0
   -1.8168   -2.8477   34.3684 H   0  0  0  0  0  0  0  0  0  0  0  0
   -1.6440   -1.2685   33.6691 H   0  0  0  0  0  0  0  0  0  0  0  0
   -3.2747   -1.6592   31.1039 H   0  0  0  0  0  0  0  0  0  0  0  0
   -2.2995   -2.1106   28.8983 H   0  0  0  0  0  0  0  0  0  0  0  0
   -0.1208   -3.1507   27.6680 H   0  0  0  0  0  0  0  0  0  0  0  0
   -0.1131   -3.9157   32.9609 H   0  0  0  0  0  0  0  0  0  0  0  0
    2.2014   -4.1553   32.2335 H   0  0  0  0  0  0  0  0  0  0  0  0
    2.4163   -5.6536   31.3835 H   0  0  0  0  0  0  0  0  0  0  0  0
    4.4137   -3.9795   31.7781 H   0  0  0  0  0  0  0  0  0  0  0  0
    3.7242   -2.9910   30.5315 H   0  0  0  0  0  0  0  0  0  0  0  0
    5.2756   -4.1219   29.2657 H   0  0  0  0  0  0  0  0  0  0  0  0
    5.3823   -5.4262   30.4009 H   0  0  0  0  0  0  0  0  0  0  0  0
    3.1934   -6.3737   29.4123 H   0  0  0  0  0  0  0  0  0  0  0  0
    4.6581   -6.4891   28.4831 H   0  0  0  0  0  0  0  0  0  0  0  0
    2.5655   -5.8177   27.2232 H   0  0  0  0  0  0  0  0  0  0  0  0
    4.0182   -4.8760   26.9413 H   0  0  0  0  0  0  0  0  0  0  0  0
    2.1798   -3.3834   27.0781 H   0  0  0  0  0  0  0  0  0  0  0  0
    3.2197   -3.0581   28.3961 H   0  0  0  0  0  0  0  0  0  0  0  0
   -7.1078   -0.6894   37.3778 H   0  0  0  0  0  0  0  0  0  0  0  0
  1  2  1  0
  2  3  2  0
  3  4  1  0
  4  5  1  0
  5  6  2  0
  5  7  1  0
  7  8  1  0
  8  9  1  0
  9 10  2  0
 10 11  1  0
 11 12  2  0
 12 13  1  0
 13 14  1  0
 14 15  2  0
 15 16  1  0
 16 17  2  0
 15 18  1  0
 18 19  1  0
 19 20  1  0
 20 21  1  0
 21 22  1  0
 22 23  1  0
  4 24  2  0
 24 25  1  0
 25  2  1  0
 17  9  1  0
 16 12  1  0
 23 14  1  0
  1 26  1  0
  1 27  1  0
  3 28  1  0
  7 29  1  0
  8 30  1  0
  8 31  1  0
 10 32  1  0
 11 33  1  0
 13 34  1  0
 17 35  1  0
 18 36  1  0
 18 37  1  0
 19 38  1  0
 19 39  1  0
 20 40  1  0
 20 41  1  0
 21 42  1  0
 21 43  1  0
 22 44  1  0
 22 45  1  0
 23 46  1  0
 23 47  1  0
 25 48  1  0
M  END
>  <Energy>  (540) 
97.779400249740206

>  <compound_id>  (540) 
54515

>  <target_id>  (540) 
1

>  <reference_id>  (540) 
40

>  <inspiration_ids>  (540) 
[7, 40]

>  <energy_score>  (540) 
-13.091960068943877

>  <distance_score>  (540) 
4.547898594587208

>  <path>  (540) 
/opt/xchem-fragalysis-2/maxwin/BulkDock/SCRATCH/511025/C54515-P40/C54515-P40.minimised.mol

>  <scratch_subdir>  (540) 
/opt/xchem-fragalysis-2/maxwin/BulkDock/SCRATCH/511025/C54515-P40

>  <fragmenstein_runtime>  (540) 
8.24331283569336

>  <fragmenstein_outcome>  (540) 
too moved

>  <fragmenstein_mode>  (540) 
expansion

>  <fragmenstein_error>  (540) 


$$$$
C54538-P7
     RDKit          3D

 49 52  0  0  0  0  0  0  0  0999 V2000
  -12.5931   -4.0526   36.5885 C   0  0  0  0  0  0  0  0  0  0  0  0
  -11.5025   -4.7619   35.6330 C   0  0  0  0  0  0  0  0  0  0  0  0
  -10.0393   -5.3082   35.7703 C   0  0  0  0  0  0  0  0  0  0  0  0
   -9.2427   -6.4790   34.2566 C   0  0  0  0  0  0  0  0  0  0  0  0
  -10.1198   -7.0775   33.7095 O   0  0  0  0  0  0  0  0  0  0  0  0
   -7.6640   -6.5754   33.8590 N   0  0  0  0  0  0  0  0  0  0  0  0
   -6.7838   -7.5519   32.5393 C   0  0  0  0  0  0  0  0  0  0  0  0
   -5.2907   -8.7250   32.7914 C   0  0  0  0  0  0  0  0  0  0  0  0
   -4.9424   -9.3054   34.0474 C   0  0  0  0  0  0  0  0  0  0  0  0
   -3.6821   -9.1640   34.7296 C   0  0  0  0  0  0  0  0  0  0  0  0
   -2.6174   -8.5492   34.0693 C   0  0  0  0  0  0  0  0  0  0  0  0
   -1.5515   -7.8126   34.5297 N   0  0  0  0  0  0  0  0  0  0  0  0
   -0.9975   -7.1528   33.4757 C   0  0  0  0  0  0  0  0  0  0  0  0
   -1.4685   -7.7076   32.3023 C   0  0  0  0  0  0  0  0  0  0  0  0
   -2.6479   -8.4328   32.6742 C   0  0  0  0  0  0  0  0  0  0  0  0
   -3.9988   -8.7094   32.0500 C   0  0  0  0  0  0  0  0  0  0  0  0
   -0.9267   -7.2802   30.9901 C   0  0  0  0  0  0  0  0  0  0  0  0
   -0.0067   -6.0413   31.0658 C   0  0  0  0  0  0  0  0  0  0  0  0
   -0.2308   -5.1444   32.2917 C   0  0  0  0  0  0  0  0  0  0  0  0
   -0.1412   -5.9405   33.6035 C   0  0  0  0  0  0  0  0  0  0  0  0
  -10.0084   -3.5715   36.3756 N   0  0  0  0  0  0  0  0  0  0  0  0
  -10.3590   -3.1127   37.6850 C   0  0  0  0  0  0  0  0  0  0  0  0
  -10.2671   -1.7428   37.6887 C   0  0  0  0  0  0  0  0  0  0  0  0
   -9.7247   -1.4269   36.4403 C   0  0  0  0  0  0  0  0  0  0  0  0
   -9.4688   -2.5029   35.6953 N   0  0  0  0  0  0  0  0  0  0  0  0
  -12.4244   -3.9976   37.6589 H   0  0  0  0  0  0  0  0  0  0  0  0
  -13.5748   -4.5378   36.5157 H   0  0  0  0  0  0  0  0  0  0  0  0
  -12.7473   -3.0175   36.2504 H   0  0  0  0  0  0  0  0  0  0  0  0
  -11.8295   -5.7181   35.4211 H   0  0  0  0  0  0  0  0  0  0  0  0
  -11.5123   -4.0639   34.7918 H   0  0  0  0  0  0  0  0  0  0  0  0
  -10.0056   -5.7939   36.6714 H   0  0  0  0  0  0  0  0  0  0  0  0
   -7.1307   -6.0405   34.5259 H   0  0  0  0  0  0  0  0  0  0  0  0
   -6.5128   -6.8019   31.8088 H   0  0  0  0  0  0  0  0  0  0  0  0
   -7.5758   -7.9819   31.9060 H   0  0  0  0  0  0  0  0  0  0  0  0
   -5.6461   -9.8928   34.6348 H   0  0  0  0  0  0  0  0  0  0  0  0
   -3.6562   -9.4400   35.7782 H   0  0  0  0  0  0  0  0  0  0  0  0
   -1.4048   -7.5411   35.4916 H   0  0  0  0  0  0  0  0  0  0  0  0
   -3.7204   -9.7421   31.8091 H   0  0  0  0  0  0  0  0  0  0  0  0
   -0.3873   -8.1200   30.5499 H   0  0  0  0  0  0  0  0  0  0  0  0
   -1.7431   -7.0986   30.3047 H   0  0  0  0  0  0  0  0  0  0  0  0
   -0.1074   -5.4543   30.1455 H   0  0  0  0  0  0  0  0  0  0  0  0
    1.0372   -6.3643   31.0952 H   0  0  0  0  0  0  0  0  0  0  0  0
   -1.2166   -4.6709   32.2104 H   0  0  0  0  0  0  0  0  0  0  0  0
    0.5081   -4.3352   32.3026 H   0  0  0  0  0  0  0  0  0  0  0  0
    0.8935   -6.2040   33.8306 H   0  0  0  0  0  0  0  0  0  0  0  0
   -0.4940   -5.3106   34.4285 H   0  0  0  0  0  0  0  0  0  0  0  0
  -10.6182   -3.8203   38.4635 H   0  0  0  0  0  0  0  0  0  0  0  0
  -10.5035   -1.0754   38.5052 H   0  0  0  0  0  0  0  0  0  0  0  0
   -9.4582   -0.4513   36.0541 H   0  0  0  0  0  0  0  0  0  0  0  0
  1  2  1  0
  2  3  1  0
  3  4  1  0
  4  5  2  0
  4  6  1  0
  6  7  1  0
  7  8  1  0
  8  9  2  0
  9 10  1  0
 10 11  2  0
 11 12  1  0
 12 13  1  0
 13 14  2  0
 14 15  1  0
 15 16  2  0
 14 17  1  0
 17 18  1  0
 18 19  1  0
 19 20  1  0
  3 21  1  0
 21 22  1  0
 22 23  2  0
 23 24  1  0
 24 25  2  0
 16  8  1  0
 25 21  1  0
 15 11  1  0
 20 13  1  0
  1 26  1  0
  1 27  1  0
  1 28  1  0
  2 29  1  0
  2 30  1  0
  3 31  1  0
  6 32  1  0
  7 33  1  0
  7 34  1  0
  9 35  1  0
 10 36  1  0
 12 37  1  0
 16 38  1  0
 17 39  1  0
 17 40  1  0
 18 41  1  0
 18 42  1  0
 19 43  1  0
 19 44  1  0
 20 45  1  0
 20 46  1  0
 22 47  1  0
 23 48  1  0
 24 49  1  0
M  END
>  <Energy>  (541) 
462.46728103836949

>  <compound_id>  (541) 
54538

>  <target_id>  (541) 
1

>  <reference_id>  (541) 
7

>  <inspiration_ids>  (541) 
[7, 40]

>  <energy_score>  (541) 
404.61707629072464

>  <distance_score>  (541) 
5.300137448931654

>  <path>  (541) 
/opt/xchem-fragalysis-2/maxwin/BulkDock/SCRATCH/511025/C54538-P7/C54538-P7.minimised.mol

>  <scratch_subdir>  (541) 
/opt/xchem-fragalysis-2/maxwin/BulkDock/SCRATCH/511025/C54538-P7

>  <fragmenstein_runtime>  (541) 
11.928131341934204

>  <fragmenstein_outcome>  (541) 
too moved

>  <fragmenstein_mode>  (541) 
expansion

>  <fragmenstein_error>  (541) 


$$$$
C54538-P40
     RDKit          3D

 49 52  0  0  0  0  0  0  0  0999 V2000
   -9.7723   -1.8733   36.2314 C   0  0  0  0  0  0  0  0  0  0  0  0
   -8.4492   -1.8746   35.4575 C   0  0  0  0  0  0  0  0  0  0  0  0
   -7.6098   -0.5648   35.3703 C   0  0  0  0  0  0  0  0  0  0  0  0
   -6.1139   -0.8527   35.7641 C   0  0  0  0  0  0  0  0  0  0  0  0
   -5.9170   -1.1775   36.9042 O   0  0  0  0  0  0  0  0  0  0  0  0
   -5.1950   -0.7300   34.6413 N   0  0  0  0  0  0  0  0  0  0  0  0
   -3.7420   -0.8687   34.5750 C   0  0  0  0  0  0  0  0  0  0  0  0
   -3.0827   -1.1948   33.2443 C   0  0  0  0  0  0  0  0  0  0  0  0
   -3.2106   -0.3648   32.1293 C   0  0  0  0  0  0  0  0  0  0  0  0
   -2.5183   -0.6152   30.9258 C   0  0  0  0  0  0  0  0  0  0  0  0
   -1.7098   -1.7542   30.8412 C   0  0  0  0  0  0  0  0  0  0  0  0
   -0.9829   -2.2664   29.7843 N   0  0  0  0  0  0  0  0  0  0  0  0
   -0.2814   -3.3619   30.2073 C   0  0  0  0  0  0  0  0  0  0  0  0
   -0.6062   -3.6032   31.5268 C   0  0  0  0  0  0  0  0  0  0  0  0
   -1.5140   -2.5906   31.9373 C   0  0  0  0  0  0  0  0  0  0  0  0
   -2.1767   -2.2754   33.1471 C   0  0  0  0  0  0  0  0  0  0  0  0
   -0.0474   -4.7441   32.2991 C   0  0  0  0  0  0  0  0  0  0  0  0
    1.1904   -5.3242   31.5944 C   0  0  0  0  0  0  0  0  0  0  0  0
    0.9873   -5.4717   30.0715 C   0  0  0  0  0  0  0  0  0  0  0  0
    0.6963   -4.1207   29.3915 C   0  0  0  0  0  0  0  0  0  0  0  0
   -8.2313    0.5111   36.1588 N   0  0  0  0  0  0  0  0  0  0  0  0
   -8.1325    0.7612   37.5027 C   0  0  0  0  0  0  0  0  0  0  0  0
   -9.0610    1.7314   37.7956 C   0  0  0  0  0  0  0  0  0  0  0  0
   -9.6897    2.0006   36.5725 C   0  0  0  0  0  0  0  0  0  0  0  0
   -9.2124    1.2514   35.5784 N   0  0  0  0  0  0  0  0  0  0  0  0
   -9.6136   -1.6524   37.2906 H   0  0  0  0  0  0  0  0  0  0  0  0
  -10.2419   -2.8590   36.1792 H   0  0  0  0  0  0  0  0  0  0  0  0
  -10.4856   -1.1567   35.8161 H   0  0  0  0  0  0  0  0  0  0  0  0
   -7.8303   -2.6663   35.8711 H   0  0  0  0  0  0  0  0  0  0  0  0
   -8.6477   -2.1948   34.4326 H   0  0  0  0  0  0  0  0  0  0  0  0
   -7.6268   -0.2038   34.3350 H   0  0  0  0  0  0  0  0  0  0  0  0
   -5.6946   -0.3501   33.8442 H   0  0  0  0  0  0  0  0  0  0  0  0
   -3.3248    0.0772   34.9411 H   0  0  0  0  0  0  0  0  0  0  0  0
   -3.4751   -1.6242   35.3236 H   0  0  0  0  0  0  0  0  0  0  0  0
   -3.8478    0.5167   32.1835 H   0  0  0  0  0  0  0  0  0  0  0  0
   -2.6399    0.0496   30.0754 H   0  0  0  0  0  0  0  0  0  0  0  0
   -0.9698   -1.8747   28.8500 H   0  0  0  0  0  0  0  0  0  0  0  0
   -1.9669   -2.8801   34.0253 H   0  0  0  0  0  0  0  0  0  0  0  0
    0.2198   -4.4337   33.3152 H   0  0  0  0  0  0  0  0  0  0  0  0
   -0.8151   -5.5228   32.3837 H   0  0  0  0  0  0  0  0  0  0  0  0
    1.4221   -6.2934   32.0445 H   0  0  0  0  0  0  0  0  0  0  0  0
    2.0544   -4.6715   31.7743 H   0  0  0  0  0  0  0  0  0  0  0  0
    0.1523   -6.1613   29.8922 H   0  0  0  0  0  0  0  0  0  0  0  0
    1.8764   -5.9193   29.6142 H   0  0  0  0  0  0  0  0  0  0  0  0
    1.6256   -3.5431   29.3182 H   0  0  0  0  0  0  0  0  0  0  0  0
    0.3263   -4.2783   28.3754 H   0  0  0  0  0  0  0  0  0  0  0  0
   -7.4350    0.2319   38.1371 H   0  0  0  0  0  0  0  0  0  0  0  0
   -9.2551    2.1752   38.7611 H   0  0  0  0  0  0  0  0  0  0  0  0
  -10.4826    2.7064   36.3638 H   0  0  0  0  0  0  0  0  0  0  0  0
  1  2  1  0
  2  3  1  0
  3  4  1  0
  4  5  2  0
  4  6  1  0
  6  7  1  0
  7  8  1  0
  8  9  2  0
  9 10  1  0
 10 11  2  0
 11 12  1  0
 12 13  1  0
 13 14  2  0
 14 15  1  0
 15 16  2  0
 14 17  1  0
 17 18  1  0
 18 19  1  0
 19 20  1  0
  3 21  1  0
 21 22  1  0
 22 23  2  0
 23 24  1  0
 24 25  2  0
 16  8  1  0
 25 21  1  0
 15 11  1  0
 20 13  1  0
  1 26  1  0
  1 27  1  0
  1 28  1  0
  2 29  1  0
  2 30  1  0
  3 31  1  0
  6 32  1  0
  7 33  1  0
  7 34  1  0
  9 35  1  0
 10 36  1  0
 12 37  1  0
 16 38  1  0
 17 39  1  0
 17 40  1  0
 18 41  1  0
 18 42  1  0
 19 43  1  0
 19 44  1  0
 20 45  1  0
 20 46  1  0
 22 47  1  0
 23 48  1  0
 24 49  1  0
M  END
>  <Energy>  (542) 
41.932826757348884

>  <compound_id>  (542) 
54538

>  <target_id>  (542) 
1

>  <reference_id>  (542) 
40

>  <inspiration_ids>  (542) 
[7, 40]

>  <energy_score>  (542) 
-15.917377990291925

>  <distance_score>  (542) 
5.153828503748055

>  <path>  (542) 
/opt/xchem-fragalysis-2/maxwin/BulkDock/SCRATCH/511025/C54538-P40/C54538-P40.minimised.mol

>  <scratch_subdir>  (542) 
/opt/xchem-fragalysis-2/maxwin/BulkDock/SCRATCH/511025/C54538-P40

>  <fragmenstein_runtime>  (542) 
17.03422975540161

>  <fragmenstein_outcome>  (542) 
too moved

>  <fragmenstein_mode>  (542) 
expansion

>  <fragmenstein_error>  (542) 


$$$$
C54508-P7
     RDKit          3D

 51 54  0  0  0  0  0  0  0  0999 V2000
   -4.7183   -0.1672   37.3550 C   0  0  0  0  0  0  0  0  0  0  0  0
   -5.2751   -0.8404   36.1235 C   0  0  0  0  0  0  0  0  0  0  0  0
   -6.4942   -1.0398   36.0374 O   0  0  0  0  0  0  0  0  0  0  0  0
   -4.2962   -1.2822   35.1028 C   0  0  0  0  0  0  0  0  0  0  0  0
   -2.8750   -1.4395   35.2356 C   0  0  0  0  0  0  0  0  0  0  0  0
   -2.4130   -1.9855   34.0440 C   0  0  0  0  0  0  0  0  0  0  0  0
   -1.0865   -2.5084   33.6327 C   0  0  0  0  0  0  0  0  0  0  0  0
   -0.1649   -1.7500   33.5784 O   0  0  0  0  0  0  0  0  0  0  0  0
   -1.1737   -3.9081   33.2946 N   0  0  0  0  0  0  0  0  0  0  0  0
   -0.1900   -4.8196   32.6885 C   0  0  0  0  0  0  0  0  0  0  0  0
   -0.3610   -4.9390   31.1759 C   0  0  0  0  0  0  0  0  0  0  0  0
   -0.5605   -3.7191   30.5344 C   0  0  0  0  0  0  0  0  0  0  0  0
   -0.4834   -3.6277   29.1735 C   0  0  0  0  0  0  0  0  0  0  0  0
   -0.1137   -4.7716   28.4706 C   0  0  0  0  0  0  0  0  0  0  0  0
    0.6002   -4.6735   27.3341 N   0  0  0  0  0  0  0  0  0  0  0  0
    0.8407   -5.8416   26.6240 C   0  0  0  0  0  0  0  0  0  0  0  0
    0.3940   -7.0201   27.7096 C   0  0  0  0  0  0  0  0  0  0  0  0
   -0.0622   -6.0862   28.9344 C   0  0  0  0  0  0  0  0  0  0  0  0
   -0.1759   -6.1497   30.3838 C   0  0  0  0  0  0  0  0  0  0  0  0
    1.0422   -8.7775   27.9214 C   0  0  0  0  0  0  0  0  0  0  0  0
    2.8345   -9.6522   28.2903 C   0  0  0  0  0  0  0  0  0  0  0  0
    4.8304   -9.2190   27.7115 C   0  0  0  0  0  0  0  0  0  0  0  0
    5.0198   -8.2392   25.9128 C   0  0  0  0  0  0  0  0  0  0  0  0
    3.6295   -7.1639   24.7465 C   0  0  0  0  0  0  0  0  0  0  0  0
    2.3724   -5.6204   25.3109 C   0  0  0  0  0  0  0  0  0  0  0  0
   -3.5244   -1.9479   33.2359 N   0  0  0  0  0  0  0  0  0  0  0  0
   -4.6777   -1.6402   33.8649 N   0  0  0  0  0  0  0  0  0  0  0  0
   -4.1753   -0.8963   37.9623 H   0  0  0  0  0  0  0  0  0  0  0  0
   -5.5393    0.2451   37.9490 H   0  0  0  0  0  0  0  0  0  0  0  0
   -4.0574    0.6556   37.0691 H   0  0  0  0  0  0  0  0  0  0  0  0
   -2.2708   -1.2671   36.1156 H   0  0  0  0  0  0  0  0  0  0  0  0
   -2.0910   -4.2514   33.5456 H   0  0  0  0  0  0  0  0  0  0  0  0
   -0.3359   -5.7981   33.1561 H   0  0  0  0  0  0  0  0  0  0  0  0
    0.8155   -4.4504   32.9148 H   0  0  0  0  0  0  0  0  0  0  0  0
   -0.6587   -2.7867   31.0816 H   0  0  0  0  0  0  0  0  0  0  0  0
   -0.4968   -2.6519   28.6919 H   0  0  0  0  0  0  0  0  0  0  0  0
    1.0466   -3.7945   27.1052 H   0  0  0  0  0  0  0  0  0  0  0  0
    0.0118   -7.0933   30.8893 H   0  0  0  0  0  0  0  0  0  0  0  0
    0.4285   -9.1456   28.7849 H   0  0  0  0  0  0  0  0  0  0  0  0
    0.2836   -9.2701   27.3287 H   0  0  0  0  0  0  0  0  0  0  0  0
    2.8690  -10.1596   29.2611 H   0  0  0  0  0  0  0  0  0  0  0  0
    2.4913  -10.5122   27.7408 H   0  0  0  0  0  0  0  0  0  0  0  0
    5.2983  -10.2020   27.5775 H   0  0  0  0  0  0  0  0  0  0  0  0
    5.4269   -8.7017   28.4585 H   0  0  0  0  0  0  0  0  0  0  0  0
    5.4494   -8.8677   25.1346 H   0  0  0  0  0  0  0  0  0  0  0  0
    6.0664   -7.8749   25.9186 H   0  0  0  0  0  0  0  0  0  0  0  0
    4.4201   -7.0243   23.9649 H   0  0  0  0  0  0  0  0  0  0  0  0
    2.8583   -7.6451   24.1133 H   0  0  0  0  0  0  0  0  0  0  0  0
    2.5601   -4.4299   25.2451 H   0  0  0  0  0  0  0  0  0  0  0  0
    1.7217   -5.8923   24.2910 H   0  0  0  0  0  0  0  0  0  0  0  0
   -3.5658   -2.1810   32.2505 H   0  0  0  0  0  0  0  0  0  0  0  0
  1  2  1  0
  2  3  2  0
  2  4  1  0
  4  5  1  0
  5  6  2  0
  6  7  1  0
  7  8  2  0
  7  9  1  0
  9 10  1  0
 10 11  1  0
 11 12  2  0
 12 13  1  0
 13 14  2  0
 14 15  1  0
 15 16  1  0
 16 17  2  0
 17 18  1  0
 18 19  2  0
 17 20  1  0
 20 21  1  0
 21 22  1  0
 22 23  1  0
 23 24  1  0
 24 25  1  0
  6 26  1  0
 26 27  1  0
 27  4  2  0
 19 11  1  0
 18 14  1  0
 25 16  1  0
  1 28  1  0
  1 29  1  0
  1 30  1  0
  5 31  1  0
  9 32  1  0
 10 33  1  0
 10 34  1  0
 12 35  1  0
 13 36  1  0
 15 37  1  0
 19 38  1  0
 20 39  1  0
 20 40  1  0
 21 41  1  0
 21 42  1  0
 22 43  1  0
 22 44  1  0
 23 45  1  0
 23 46  1  0
 24 47  1  0
 24 48  1  0
 25 49  1  0
 25 50  1  0
 26 51  1  0
M  END
>  <Energy>  (543) 
658.65843101599478

>  <compound_id>  (543) 
54508

>  <target_id>  (543) 
1

>  <reference_id>  (543) 
7

>  <inspiration_ids>  (543) 
[7, 40]

>  <energy_score>  (543) 
578.7284761453143

>  <distance_score>  (543) 
5.616271961357662

>  <path>  (543) 
/opt/xchem-fragalysis-2/maxwin/BulkDock/SCRATCH/511025/C54508-P7/C54508-P7.minimised.mol

>  <scratch_subdir>  (543) 
/opt/xchem-fragalysis-2/maxwin/BulkDock/SCRATCH/511025/C54508-P7

>  <fragmenstein_runtime>  (543) 
14.841804265975952

>  <fragmenstein_outcome>  (543) 
too moved

>  <fragmenstein_mode>  (543) 
expansion

>  <fragmenstein_error>  (543) 


$$$$
C54508-P40
     RDKit          3D

 51 54  0  0  0  0  0  0  0  0999 V2000
  -10.7241    0.5638   37.0146 C   0  0  0  0  0  0  0  0  0  0  0  0
  -10.2219   -0.7845   36.5484 C   0  0  0  0  0  0  0  0  0  0  0  0
  -10.9322   -1.7833   36.7293 O   0  0  0  0  0  0  0  0  0  0  0  0
   -8.8946   -0.8009   35.8742 C   0  0  0  0  0  0  0  0  0  0  0  0
   -8.1200   -1.8894   35.3831 C   0  0  0  0  0  0  0  0  0  0  0  0
   -6.9253   -1.4140   34.7844 C   0  0  0  0  0  0  0  0  0  0  0  0
   -5.7301   -2.2024   34.2300 C   0  0  0  0  0  0  0  0  0  0  0  0
   -5.9091   -3.3573   34.2254 O   0  0  0  0  0  0  0  0  0  0  0  0
   -4.4501   -1.3732   33.8655 N   0  0  0  0  0  0  0  0  0  0  0  0
   -3.0446   -1.8341   33.4993 C   0  0  0  0  0  0  0  0  0  0  0  0
   -2.4730   -2.4821   32.1938 C   0  0  0  0  0  0  0  0  0  0  0  0
   -2.8007   -1.9780   30.9413 C   0  0  0  0  0  0  0  0  0  0  0  0
   -2.0881   -2.3208   29.7665 C   0  0  0  0  0  0  0  0  0  0  0  0
   -1.0114   -3.2099   29.8366 C   0  0  0  0  0  0  0  0  0  0  0  0
   -0.1870   -3.6814   28.8394 N   0  0  0  0  0  0  0  0  0  0  0  0
    0.8368   -4.4102   29.3850 C   0  0  0  0  0  0  0  0  0  0  0  0
    0.6113   -4.4675   30.7555 C   0  0  0  0  0  0  0  0  0  0  0  0
   -0.6057   -3.7574   31.0432 C   0  0  0  0  0  0  0  0  0  0  0  0
   -1.3462   -3.3857   32.2220 C   0  0  0  0  0  0  0  0  0  0  0  0
    1.5718   -4.9762   31.7739 C   0  0  0  0  0  0  0  0  0  0  0  0
    2.7018   -3.9865   32.0886 C   0  0  0  0  0  0  0  0  0  0  0  0
    3.7699   -3.7935   30.9951 C   0  0  0  0  0  0  0  0  0  0  0  0
    3.3552   -2.9162   29.8101 C   0  0  0  0  0  0  0  0  0  0  0  0
    3.0530   -3.6775   28.5084 C   0  0  0  0  0  0  0  0  0  0  0  0
    2.0362   -4.8177   28.6074 C   0  0  0  0  0  0  0  0  0  0  0  0
   -7.1017   -0.0704   34.9334 N   0  0  0  0  0  0  0  0  0  0  0  0
   -8.2194    0.3279   35.5986 N   0  0  0  0  0  0  0  0  0  0  0  0
  -10.8776    1.2222   36.1552 H   0  0  0  0  0  0  0  0  0  0  0  0
  -10.0108    1.0095   37.7132 H   0  0  0  0  0  0  0  0  0  0  0  0
  -11.6802    0.4393   37.5319 H   0  0  0  0  0  0  0  0  0  0  0  0
   -8.4019   -2.9212   35.4748 H   0  0  0  0  0  0  0  0  0  0  0  0
   -4.6137   -0.3991   34.0571 H   0  0  0  0  0  0  0  0  0  0  0  0
   -2.7213   -2.4349   34.3529 H   0  0  0  0  0  0  0  0  0  0  0  0
   -2.4642   -0.9051   33.5945 H   0  0  0  0  0  0  0  0  0  0  0  0
   -3.6083   -1.2515   30.8505 H   0  0  0  0  0  0  0  0  0  0  0  0
   -2.3866   -1.8889   28.8123 H   0  0  0  0  0  0  0  0  0  0  0  0
   -0.2896   -3.4099   27.8705 H   0  0  0  0  0  0  0  0  0  0  0  0
   -0.9913   -3.7411   33.1887 H   0  0  0  0  0  0  0  0  0  0  0  0
    1.0319   -5.1982   32.7027 H   0  0  0  0  0  0  0  0  0  0  0  0
    1.9863   -5.9230   31.4356 H   0  0  0  0  0  0  0  0  0  0  0  0
    2.2846   -3.0115   32.3707 H   0  0  0  0  0  0  0  0  0  0  0  0
    3.2203   -4.3657   32.9791 H   0  0  0  0  0  0  0  0  0  0  0  0
    4.1549   -4.7546   30.6437 H   0  0  0  0  0  0  0  0  0  0  0  0
    4.6182   -3.2937   31.4820 H   0  0  0  0  0  0  0  0  0  0  0  0
    2.5137   -2.2676   30.0804 H   0  0  0  0  0  0  0  0  0  0  0  0
    4.1854   -2.2329   29.5864 H   0  0  0  0  0  0  0  0  0  0  0  0
    2.6973   -2.9456   27.7713 H   0  0  0  0  0  0  0  0  0  0  0  0
    3.9885   -4.0836   28.1034 H   0  0  0  0  0  0  0  0  0  0  0  0
    1.7498   -5.1345   27.5987 H   0  0  0  0  0  0  0  0  0  0  0  0
    2.5036   -5.6918   29.0756 H   0  0  0  0  0  0  0  0  0  0  0  0
   -6.4692    0.6505   34.6111 H   0  0  0  0  0  0  0  0  0  0  0  0
  1  2  1  0
  2  3  2  0
  2  4  1  0
  4  5  1  0
  5  6  2  0
  6  7  1  0
  7  8  2  0
  7  9  1  0
  9 10  1  0
 10 11  1  0
 11 12  2  0
 12 13  1  0
 13 14  2  0
 14 15  1  0
 15 16  1  0
 16 17  2  0
 17 18  1  0
 18 19  2  0
 17 20  1  0
 20 21  1  0
 21 22  1  0
 22 23  1  0
 23 24  1  0
 24 25  1  0
  6 26  1  0
 26 27  1  0
 27  4  2  0
 19 11  1  0
 18 14  1  0
 25 16  1  0
  1 28  1  0
  1 29  1  0
  1 30  1  0
  5 31  1  0
  9 32  1  0
 10 33  1  0
 10 34  1  0
 12 35  1  0
 13 36  1  0
 15 37  1  0
 19 38  1  0
 20 39  1  0
 20 40  1  0
 21 41  1  0
 21 42  1  0
 22 43  1  0
 22 44  1  0
 23 45  1  0
 23 46  1  0
 24 47  1  0
 24 48  1  0
 25 49  1  0
 25 50  1  0
 26 51  1  0
M  END
>  <Energy>  (544) 
75.162252048790421

>  <compound_id>  (544) 
54508

>  <target_id>  (544) 
1

>  <reference_id>  (544) 
40

>  <inspiration_ids>  (544) 
[7, 40]

>  <energy_score>  (544) 
4.468979716848594

>  <distance_score>  (544) 
4.4807598489422515

>  <path>  (544) 
/opt/xchem-fragalysis-2/maxwin/BulkDock/SCRATCH/511025/C54508-P40/C54508-P40.minimised.mol

>  <scratch_subdir>  (544) 
/opt/xchem-fragalysis-2/maxwin/BulkDock/SCRATCH/511025/C54508-P40

>  <fragmenstein_runtime>  (544) 
11.131776809692383

>  <fragmenstein_outcome>  (544) 
too moved

>  <fragmenstein_mode>  (544) 
expansion

>  <fragmenstein_error>  (544) 


$$$$
C54522-P7
     RDKit          3D

 51 55  0  0  0  0  0  0  0  0999 V2000
   -3.4772   -0.9517   34.9667 O   0  0  0  0  0  0  0  0  0  0  0  0
   -4.1539   -0.9847   33.9795 C   0  0  0  0  0  0  0  0  0  0  0  0
   -5.5755   -0.8086   33.8062 N   0  0  0  0  0  0  0  0  0  0  0  0
   -6.5726   -0.6436   34.7204 N   0  0  0  0  0  0  0  0  0  0  0  0
   -7.3072    0.5324   35.1157 C   0  0  0  0  0  0  0  0  0  0  0  0
   -7.1756    1.6793   34.7993 O   0  0  0  0  0  0  0  0  0  0  0  0
   -8.4385    0.1862   35.9673 C   0  0  0  0  0  0  0  0  0  0  0  0
   -8.6826   -0.8159   36.8863 C   0  0  0  0  0  0  0  0  0  0  0  0
  -10.0617   -0.7169   37.2355 C   0  0  0  0  0  0  0  0  0  0  0  0
  -10.8506   -1.6161   38.0827 C   0  0  0  0  0  0  0  0  0  0  0  0
  -12.2333   -1.7548   37.8756 C   0  0  0  0  0  0  0  0  0  0  0  0
  -12.9906   -2.6336   38.6544 C   0  0  0  0  0  0  0  0  0  0  0  0
  -12.3736   -3.3871   39.6498 C   0  0  0  0  0  0  0  0  0  0  0  0
  -11.0032   -3.2589   39.8686 C   0  0  0  0  0  0  0  0  0  0  0  0
  -10.2465   -2.3721   39.0961 C   0  0  0  0  0  0  0  0  0  0  0  0
  -10.6135    0.3413   36.6225 N   0  0  0  0  0  0  0  0  0  0  0  0
   -9.5924    0.9232   35.9717 N   0  0  0  0  0  0  0  0  0  0  0  0
   -3.4184   -1.3255   32.6907 C   0  0  0  0  0  0  0  0  0  0  0  0
   -3.7919   -0.8396   31.4318 C   0  0  0  0  0  0  0  0  0  0  0  0
   -3.0993   -1.2045   30.2622 C   0  0  0  0  0  0  0  0  0  0  0  0
   -1.9989   -2.0582   30.3856 C   0  0  0  0  0  0  0  0  0  0  0  0
   -1.1366   -2.5476   29.4247 N   0  0  0  0  0  0  0  0  0  0  0  0
   -0.1622   -3.2850   30.0317 C   0  0  0  0  0  0  0  0  0  0  0  0
   -0.4301   -3.3486   31.3827 C   0  0  0  0  0  0  0  0  0  0  0  0
   -1.5778   -2.5491   31.6219 C   0  0  0  0  0  0  0  0  0  0  0  0
   -2.2889   -2.1648   32.7794 C   0  0  0  0  0  0  0  0  0  0  0  0
    0.4508   -4.0644   32.3527 C   0  0  0  0  0  0  0  0  0  0  0  0
    1.4877   -4.9365   31.6222 C   0  0  0  0  0  0  0  0  0  0  0  0
    2.0811   -4.2240   30.3935 C   0  0  0  0  0  0  0  0  0  0  0  0
    0.9985   -3.8994   29.3465 C   0  0  0  0  0  0  0  0  0  0  0  0
   -5.7925   -0.8205   32.8169 H   0  0  0  0  0  0  0  0  0  0  0  0
   -7.0141   -1.4602   35.1231 H   0  0  0  0  0  0  0  0  0  0  0  0
   -7.9678   -1.5474   37.2289 H   0  0  0  0  0  0  0  0  0  0  0  0
  -12.7309   -1.1725   37.1026 H   0  0  0  0  0  0  0  0  0  0  0  0
  -14.0614   -2.7180   38.4858 H   0  0  0  0  0  0  0  0  0  0  0  0
  -12.9587   -4.0659   40.2652 H   0  0  0  0  0  0  0  0  0  0  0  0
  -10.5195   -3.8466   40.6466 H   0  0  0  0  0  0  0  0  0  0  0  0
   -9.1850   -2.2791   39.3123 H   0  0  0  0  0  0  0  0  0  0  0  0
   -9.7635    1.7846   35.4616 H   0  0  0  0  0  0  0  0  0  0  0  0
   -4.6048   -0.1248   31.3246 H   0  0  0  0  0  0  0  0  0  0  0  0
   -3.3959   -0.8082   29.2953 H   0  0  0  0  0  0  0  0  0  0  0  0
   -1.2055   -2.3603   28.4315 H   0  0  0  0  0  0  0  0  0  0  0  0
   -1.9549   -2.5230   33.7518 H   0  0  0  0  0  0  0  0  0  0  0  0
    0.9734   -3.3208   32.9668 H   0  0  0  0  0  0  0  0  0  0  0  0
   -0.1468   -4.6880   33.0270 H   0  0  0  0  0  0  0  0  0  0  0  0
    1.0088   -5.8670   31.2927 H   0  0  0  0  0  0  0  0  0  0  0  0
    2.2872   -5.2140   32.3180 H   0  0  0  0  0  0  0  0  0  0  0  0
    2.5674   -3.2953   30.7198 H   0  0  0  0  0  0  0  0  0  0  0  0
    2.8602   -4.8450   29.9464 H   0  0  0  0  0  0  0  0  0  0  0  0
    1.4075   -3.2368   28.5767 H   0  0  0  0  0  0  0  0  0  0  0  0
    0.6530   -4.8157   28.8597 H   0  0  0  0  0  0  0  0  0  0  0  0
  1  2  2  0
  2  3  1  0
  3  4  1  0
  4  5  1  0
  5  6  2  0
  5  7  1  0
  7  8  2  0
  8  9  1  0
  9 10  1  0
 10 11  2  0
 11 12  1  0
 12 13  2  0
 13 14  1  0
 14 15  2  0
  9 16  2  0
 16 17  1  0
  2 18  1  0
 18 19  2  0
 19 20  1  0
 20 21  2  0
 21 22  1  0
 22 23  1  0
 23 24  2  0
 24 25  1  0
 25 26  2  0
 24 27  1  0
 27 28  1  0
 28 29  1  0
 29 30  1  0
 17  7  1  0
 26 18  1  0
 15 10  1  0
 25 21  1  0
 30 23  1  0
  3 31  1  0
  4 32  1  0
  8 33  1  0
 11 34  1  0
 12 35  1  0
 13 36  1  0
 14 37  1  0
 15 38  1  0
 17 39  1  0
 19 40  1  0
 20 41  1  0
 22 42  1  0
 26 43  1  0
 27 44  1  0
 27 45  1  0
 28 46  1  0
 28 47  1  0
 29 48  1  0
 29 49  1  0
 30 50  1  0
 30 51  1  0
M  END
>  <Energy>  (545) 
93.902526512157948

>  <compound_id>  (545) 
54522

>  <target_id>  (545) 
1

>  <reference_id>  (545) 
7

>  <inspiration_ids>  (545) 
[7, 40]

>  <energy_score>  (545) 
-29.64288642475617

>  <distance_score>  (545) 
4.724520963073385

>  <path>  (545) 
/opt/xchem-fragalysis-2/maxwin/BulkDock/SCRATCH/511025/C54522-P7/C54522-P7.minimised.mol

>  <scratch_subdir>  (545) 
/opt/xchem-fragalysis-2/maxwin/BulkDock/SCRATCH/511025/C54522-P7

>  <fragmenstein_runtime>  (545) 
21.47532081604004

>  <fragmenstein_outcome>  (545) 
too moved

>  <fragmenstein_mode>  (545) 
expansion

>  <fragmenstein_error>  (545) 


$$$$
C54522-P40
     RDKit          3D

 51 55  0  0  0  0  0  0  0  0999 V2000
   -1.9717   -2.4241   34.0071 O   0  0  0  0  0  0  0  0  0  0  0  0
   -2.6138   -2.3176   33.0265 C   0  0  0  0  0  0  0  0  0  0  0  0
   -4.1656   -2.0473   32.8404 N   0  0  0  0  0  0  0  0  0  0  0  0
   -5.2087   -1.9557   33.8047 N   0  0  0  0  0  0  0  0  0  0  0  0
   -5.8952   -0.6911   34.4531 C   0  0  0  0  0  0  0  0  0  0  0  0
   -5.6442    0.4506   34.3412 O   0  0  0  0  0  0  0  0  0  0  0  0
   -7.1216   -1.0439   35.2565 C   0  0  0  0  0  0  0  0  0  0  0  0
   -7.7675   -0.4060   36.3290 C   0  0  0  0  0  0  0  0  0  0  0  0
   -9.0031   -1.0973   36.5943 C   0  0  0  0  0  0  0  0  0  0  0  0
  -10.0567   -0.8320   37.5871 C   0  0  0  0  0  0  0  0  0  0  0  0
  -11.2121   -1.6455   37.6552 C   0  0  0  0  0  0  0  0  0  0  0  0
  -12.2218   -1.3823   38.5825 C   0  0  0  0  0  0  0  0  0  0  0  0
  -12.0966   -0.3062   39.4569 C   0  0  0  0  0  0  0  0  0  0  0  0
  -10.9635    0.5047   39.4062 C   0  0  0  0  0  0  0  0  0  0  0  0
   -9.9497    0.2449   38.4776 C   0  0  0  0  0  0  0  0  0  0  0  0
   -9.0993   -2.1254   35.7430 N   0  0  0  0  0  0  0  0  0  0  0  0
   -8.0807   -1.9463   34.8820 N   0  0  0  0  0  0  0  0  0  0  0  0
   -1.8798   -2.5767   31.6886 C   0  0  0  0  0  0  0  0  0  0  0  0
   -2.1435   -1.7124   30.6391 C   0  0  0  0  0  0  0  0  0  0  0  0
   -1.4515   -1.7961   29.4294 C   0  0  0  0  0  0  0  0  0  0  0  0
   -0.4472   -2.7487   29.2812 C   0  0  0  0  0  0  0  0  0  0  0  0
    0.4257   -2.8737   28.2295 N   0  0  0  0  0  0  0  0  0  0  0  0
    1.3415   -3.8315   28.5070 C   0  0  0  0  0  0  0  0  0  0  0  0
    0.9751   -4.4328   29.7021 C   0  0  0  0  0  0  0  0  0  0  0  0
   -0.1317   -3.6886   30.2593 C   0  0  0  0  0  0  0  0  0  0  0  0
   -0.8767   -3.6020   31.4938 C   0  0  0  0  0  0  0  0  0  0  0  0
    1.7937   -5.5422   30.2433 C   0  0  0  0  0  0  0  0  0  0  0  0
    3.2024   -5.5725   29.5844 C   0  0  0  0  0  0  0  0  0  0  0  0
    3.1758   -5.3880   28.0706 C   0  0  0  0  0  0  0  0  0  0  0  0
    2.6008   -4.0248   27.7414 C   0  0  0  0  0  0  0  0  0  0  0  0
   -4.4038   -2.0963   31.8558 H   0  0  0  0  0  0  0  0  0  0  0  0
   -5.7294   -2.7874   34.0500 H   0  0  0  0  0  0  0  0  0  0  0  0
   -7.3817    0.4650   36.8414 H   0  0  0  0  0  0  0  0  0  0  0  0
  -11.3212   -2.4986   36.9864 H   0  0  0  0  0  0  0  0  0  0  0  0
  -13.0997   -2.0228   38.6207 H   0  0  0  0  0  0  0  0  0  0  0  0
  -12.8803   -0.1021   40.1821 H   0  0  0  0  0  0  0  0  0  0  0  0
  -10.8666    1.3416   40.0935 H   0  0  0  0  0  0  0  0  0  0  0  0
   -9.0814    0.8976   38.4675 H   0  0  0  0  0  0  0  0  0  0  0  0
   -8.1298   -2.4316   33.9952 H   0  0  0  0  0  0  0  0  0  0  0  0
   -2.8558   -0.8966   30.7538 H   0  0  0  0  0  0  0  0  0  0  0  0
   -1.6629   -1.0848   28.6329 H   0  0  0  0  0  0  0  0  0  0  0  0
    0.4411   -2.2261   27.4517 H   0  0  0  0  0  0  0  0  0  0  0  0
   -0.6265   -4.2563   32.3262 H   0  0  0  0  0  0  0  0  0  0  0  0
    1.8906   -5.4666   31.3312 H   0  0  0  0  0  0  0  0  0  0  0  0
    1.2590   -6.4703   30.0104 H   0  0  0  0  0  0  0  0  0  0  0  0
    3.7083   -6.5186   29.7527 H   0  0  0  0  0  0  0  0  0  0  0  0
    3.8261   -4.7896   30.0358 H   0  0  0  0  0  0  0  0  0  0  0  0
    2.5724   -6.1819   27.6130 H   0  0  0  0  0  0  0  0  0  0  0  0
    4.1885   -5.4734   27.6608 H   0  0  0  0  0  0  0  0  0  0  0  0
    3.3126   -3.2431   28.0362 H   0  0  0  0  0  0  0  0  0  0  0  0
    2.4815   -3.9450   26.6665 H   0  0  0  0  0  0  0  0  0  0  0  0
  1  2  2  0
  2  3  1  0
  3  4  1  0
  4  5  1  0
  5  6  2  0
  5  7  1  0
  7  8  2  0
  8  9  1  0
  9 10  1  0
 10 11  2  0
 11 12  1  0
 12 13  2  0
 13 14  1  0
 14 15  2  0
  9 16  2  0
 16 17  1  0
  2 18  1  0
 18 19  2  0
 19 20  1  0
 20 21  2  0
 21 22  1  0
 22 23  1  0
 23 24  2  0
 24 25  1  0
 25 26  2  0
 24 27  1  0
 27 28  1  0
 28 29  1  0
 29 30  1  0
 17  7  1  0
 26 18  1  0
 15 10  1  0
 25 21  1  0
 30 23  1  0
  3 31  1  0
  4 32  1  0
  8 33  1  0
 11 34  1  0
 12 35  1  0
 13 36  1  0
 14 37  1  0
 15 38  1  0
 17 39  1  0
 19 40  1  0
 20 41  1  0
 22 42  1  0
 26 43  1  0
 27 44  1  0
 27 45  1  0
 28 46  1  0
 28 47  1  0
 29 48  1  0
 29 49  1  0
 30 50  1  0
 30 51  1  0
M  END
>  <Energy>  (546) 
139.29319197972399

>  <compound_id>  (546) 
54522

>  <target_id>  (546) 
1

>  <reference_id>  (546) 
40

>  <inspiration_ids>  (546) 
[7, 40]

>  <energy_score>  (546) 
41.79084834557477

>  <distance_score>  (546) 
3.7543010242354207

>  <path>  (546) 
/opt/xchem-fragalysis-2/maxwin/BulkDock/SCRATCH/511025/C54522-P40/C54522-P40.minimised.mol

>  <scratch_subdir>  (546) 
/opt/xchem-fragalysis-2/maxwin/BulkDock/SCRATCH/511025/C54522-P40

>  <fragmenstein_runtime>  (546) 
8.319476127624512

>  <fragmenstein_outcome>  (546) 
too moved

>  <fragmenstein_mode>  (546) 
expansion

>  <fragmenstein_error>  (546) 


$$$$
C54514-P7
     RDKit          3D

 49 52  0  0  0  0  0  0  0  0999 V2000
   -5.7685    0.3324   33.0423 C   0  0  0  0  0  0  0  0  0  0  0  0
   -4.9201   -0.6416   33.8084 N   0  0  0  0  0  0  0  0  0  0  0  0
   -6.1896   -0.7405   34.6537 C   0  0  0  0  0  0  0  0  0  0  0  0
   -6.7058    0.3312   35.6743 C   0  0  0  0  0  0  0  0  0  0  0  0
   -7.8657   -0.2213   36.4554 C   0  0  0  0  0  0  0  0  0  0  0  0
   -7.8091   -1.1079   37.5507 C   0  0  0  0  0  0  0  0  0  0  0  0
   -9.0077   -1.5922   37.8810 N   0  0  0  0  0  0  0  0  0  0  0  0
   -9.8565   -0.9132   37.0932 N   0  0  0  0  0  0  0  0  0  0  0  0
  -11.2690   -1.2076   37.1528 C   0  0  0  0  0  0  0  0  0  0  0  0
   -9.2210   -0.0357   36.2617 C   0  0  0  0  0  0  0  0  0  0  0  0
   -4.3151   -1.5906   32.9091 C   0  0  0  0  0  0  0  0  0  0  0  0
   -4.7060   -2.6676   32.5280 O   0  0  0  0  0  0  0  0  0  0  0  0
   -2.9291   -1.2730   32.3705 C   0  0  0  0  0  0  0  0  0  0  0  0
   -2.6030   -0.0784   31.7282 C   0  0  0  0  0  0  0  0  0  0  0  0
   -1.4581    0.0361   30.9137 C   0  0  0  0  0  0  0  0  0  0  0  0
   -0.6215   -1.0770   30.7799 C   0  0  0  0  0  0  0  0  0  0  0  0
    0.5140   -1.2610   30.0186 N   0  0  0  0  0  0  0  0  0  0  0  0
    1.0626   -2.4769   30.3072 C   0  0  0  0  0  0  0  0  0  0  0  0
    0.2406   -3.1247   31.2069 C   0  0  0  0  0  0  0  0  0  0  0  0
   -0.8504   -2.2580   31.4824 C   0  0  0  0  0  0  0  0  0  0  0  0
   -2.0092   -2.3423   32.2818 C   0  0  0  0  0  0  0  0  0  0  0  0
    0.5781   -4.4495   31.7987 C   0  0  0  0  0  0  0  0  0  0  0  0
    1.7691   -5.0904   31.0686 C   0  0  0  0  0  0  0  0  0  0  0  0
    2.8742   -4.0835   30.7038 C   0  0  0  0  0  0  0  0  0  0  0  0
    2.3483   -2.9848   29.7654 C   0  0  0  0  0  0  0  0  0  0  0  0
   -6.6940   -0.0639   32.5960 H   0  0  0  0  0  0  0  0  0  0  0  0
   -5.2065    0.6400   32.1584 H   0  0  0  0  0  0  0  0  0  0  0  0
   -5.8749    1.2838   33.5703 H   0  0  0  0  0  0  0  0  0  0  0  0
   -5.8837   -1.5740   35.3049 H   0  0  0  0  0  0  0  0  0  0  0  0
   -7.0154   -1.2338   34.1078 H   0  0  0  0  0  0  0  0  0  0  0  0
   -7.0417    1.2490   35.1824 H   0  0  0  0  0  0  0  0  0  0  0  0
   -5.8912    0.6070   36.3540 H   0  0  0  0  0  0  0  0  0  0  0  0
   -6.9358   -1.4696   38.0793 H   0  0  0  0  0  0  0  0  0  0  0  0
  -11.4125   -2.2597   36.8937 H   0  0  0  0  0  0  0  0  0  0  0  0
  -11.8011   -0.5717   36.4410 H   0  0  0  0  0  0  0  0  0  0  0  0
  -11.6195   -1.0081   38.1683 H   0  0  0  0  0  0  0  0  0  0  0  0
   -9.7701    0.5963   35.5806 H   0  0  0  0  0  0  0  0  0  0  0  0
   -3.2560    0.7831   31.7778 H   0  0  0  0  0  0  0  0  0  0  0  0
   -1.2527    0.9594   30.3808 H   0  0  0  0  0  0  0  0  0  0  0  0
    0.9067   -0.5751   29.3882 H   0  0  0  0  0  0  0  0  0  0  0  0
   -2.1974   -3.2648   32.8103 H   0  0  0  0  0  0  0  0  0  0  0  0
    0.8380   -4.3058   32.8546 H   0  0  0  0  0  0  0  0  0  0  0  0
   -0.2860   -5.1222   31.7617 H   0  0  0  0  0  0  0  0  0  0  0  0
    2.1932   -5.8779   31.6936 H   0  0  0  0  0  0  0  0  0  0  0  0
    1.4002   -5.5587   30.1500 H   0  0  0  0  0  0  0  0  0  0  0  0
    3.7147   -4.6026   30.2327 H   0  0  0  0  0  0  0  0  0  0  0  0
    3.2593   -3.6283   31.6257 H   0  0  0  0  0  0  0  0  0  0  0  0
    2.1802   -3.3970   28.7640 H   0  0  0  0  0  0  0  0  0  0  0  0
    3.0885   -2.1822   29.6797 H   0  0  0  0  0  0  0  0  0  0  0  0
  1  2  1  0
  2  3  1  0
  3  4  1  0
  4  5  1  0
  5  6  1  0
  6  7  2  0
  7  8  1  0
  8  9  1  0
  8 10  1  0
  2 11  1  0
 11 12  2  0
 11 13  1  0
 13 14  2  0
 14 15  1  0
 15 16  2  0
 16 17  1  0
 17 18  1  0
 18 19  2  0
 19 20  1  0
 20 21  2  0
 19 22  1  0
 22 23  1  0
 23 24  1  0
 24 25  1  0
 10  5  2  0
 21 13  1  0
 20 16  1  0
 25 18  1  0
  1 26  1  0
  1 27  1  0
  1 28  1  0
  3 29  1  0
  3 30  1  0
  4 31  1  0
  4 32  1  0
  6 33  1  0
  9 34  1  0
  9 35  1  0
  9 36  1  0
 10 37  1  0
 14 38  1  0
 15 39  1  0
 17 40  1  0
 21 41  1  0
 22 42  1  0
 22 43  1  0
 23 44  1  0
 23 45  1  0
 24 46  1  0
 24 47  1  0
 25 48  1  0
 25 49  1  0
M  END
>  <Energy>  (547) 
126.68699982888269

>  <compound_id>  (547) 
54514

>  <target_id>  (547) 
1

>  <reference_id>  (547) 
7

>  <inspiration_ids>  (547) 
[7, 40]

>  <energy_score>  (547) 
53.05858825501849

>  <distance_score>  (547) 
4.752841412616694

>  <path>  (547) 
/opt/xchem-fragalysis-2/maxwin/BulkDock/SCRATCH/511025/C54514-P7/C54514-P7.minimised.mol

>  <scratch_subdir>  (547) 
/opt/xchem-fragalysis-2/maxwin/BulkDock/SCRATCH/511025/C54514-P7

>  <fragmenstein_runtime>  (547) 
12.694530963897705

>  <fragmenstein_outcome>  (547) 
too moved

>  <fragmenstein_mode>  (547) 
expansion

>  <fragmenstein_error>  (547) 


$$$$
C54514-P40
     RDKit          3D

 49 52  0  0  0  0  0  0  0  0999 V2000
   -3.5483   -1.1853   36.2734 C   0  0  0  0  0  0  0  0  0  0  0  0
   -4.3139   -1.1770   34.9712 N   0  0  0  0  0  0  0  0  0  0  0  0
   -5.4669   -0.7617   35.9108 C   0  0  0  0  0  0  0  0  0  0  0  0
   -6.7955   -0.6025   35.0989 C   0  0  0  0  0  0  0  0  0  0  0  0
   -8.0315   -0.6892   35.9481 C   0  0  0  0  0  0  0  0  0  0  0  0
   -8.5846    0.2819   36.8139 C   0  0  0  0  0  0  0  0  0  0  0  0
   -9.7021   -0.1379   37.4176 N   0  0  0  0  0  0  0  0  0  0  0  0
   -9.8919   -1.3705   36.9189 N   0  0  0  0  0  0  0  0  0  0  0  0
  -11.0122   -2.1675   37.3626 C   0  0  0  0  0  0  0  0  0  0  0  0
   -8.9282   -1.7363   36.0287 C   0  0  0  0  0  0  0  0  0  0  0  0
   -3.5993   -0.4309   33.9851 C   0  0  0  0  0  0  0  0  0  0  0  0
   -3.6531    0.7372   33.6977 O   0  0  0  0  0  0  0  0  0  0  0  0
   -2.6974   -1.2704   33.0835 C   0  0  0  0  0  0  0  0  0  0  0  0
   -2.6922   -0.9491   31.7200 C   0  0  0  0  0  0  0  0  0  0  0  0
   -1.9406   -1.6246   30.7484 C   0  0  0  0  0  0  0  0  0  0  0  0
   -1.2485   -2.7457   31.1777 C   0  0  0  0  0  0  0  0  0  0  0  0
   -0.5504   -3.6814   30.4461 N   0  0  0  0  0  0  0  0  0  0  0  0
   -0.2790   -4.7466   31.2575 C   0  0  0  0  0  0  0  0  0  0  0  0
   -0.5778   -4.3908   32.5580 C   0  0  0  0  0  0  0  0  0  0  0  0
   -1.2332   -3.1365   32.5156 C   0  0  0  0  0  0  0  0  0  0  0  0
   -1.9204   -2.3584   33.4827 C   0  0  0  0  0  0  0  0  0  0  0  0
   -0.4027   -5.3205   33.7083 C   0  0  0  0  0  0  0  0  0  0  0  0
   -0.5930   -6.7588   33.2162 C   0  0  0  0  0  0  0  0  0  0  0  0
    0.3122   -7.0237   32.0090 C   0  0  0  0  0  0  0  0  0  0  0  0
    0.1180   -6.0937   30.8002 C   0  0  0  0  0  0  0  0  0  0  0  0
   -2.5055   -1.4213   36.0329 H   0  0  0  0  0  0  0  0  0  0  0  0
   -3.4457   -0.1993   36.7536 H   0  0  0  0  0  0  0  0  0  0  0  0
   -3.8401   -1.9903   36.9612 H   0  0  0  0  0  0  0  0  0  0  0  0
   -5.6874   -1.5295   36.6674 H   0  0  0  0  0  0  0  0  0  0  0  0
   -5.3048    0.2326   36.3572 H   0  0  0  0  0  0  0  0  0  0  0  0
   -6.8411   -1.3883   34.3330 H   0  0  0  0  0  0  0  0  0  0  0  0
   -6.7782    0.3513   34.5597 H   0  0  0  0  0  0  0  0  0  0  0  0
   -8.2144    1.2767   37.0295 H   0  0  0  0  0  0  0  0  0  0  0  0
  -11.9038   -1.5364   37.3800 H   0  0  0  0  0  0  0  0  0  0  0  0
  -10.7866   -2.5394   38.3650 H   0  0  0  0  0  0  0  0  0  0  0  0
  -11.1559   -3.0028   36.6734 H   0  0  0  0  0  0  0  0  0  0  0  0
   -8.9607   -2.6804   35.5118 H   0  0  0  0  0  0  0  0  0  0  0  0
   -3.3653   -0.1773   31.3787 H   0  0  0  0  0  0  0  0  0  0  0  0
   -1.9898   -1.3379   29.7023 H   0  0  0  0  0  0  0  0  0  0  0  0
   -0.4594   -3.6504   29.4383 H   0  0  0  0  0  0  0  0  0  0  0  0
   -1.9112   -2.6925   34.5111 H   0  0  0  0  0  0  0  0  0  0  0  0
    0.6079   -5.1958   34.1162 H   0  0  0  0  0  0  0  0  0  0  0  0
   -1.1029   -5.1091   34.5199 H   0  0  0  0  0  0  0  0  0  0  0  0
   -1.6343   -6.9355   32.9308 H   0  0  0  0  0  0  0  0  0  0  0  0
   -0.3538   -7.4602   34.0234 H   0  0  0  0  0  0  0  0  0  0  0  0
    0.1721   -8.0521   31.6747 H   0  0  0  0  0  0  0  0  0  0  0  0
    1.3373   -6.8986   32.3692 H   0  0  0  0  0  0  0  0  0  0  0  0
   -0.6724   -6.5060   30.1623 H   0  0  0  0  0  0  0  0  0  0  0  0
    1.0326   -6.0533   30.1995 H   0  0  0  0  0  0  0  0  0  0  0  0
  1  2  1  0
  2  3  1  0
  3  4  1  0
  4  5  1  0
  5  6  1  0
  6  7  2  0
  7  8  1  0
  8  9  1  0
  8 10  1  0
  2 11  1  0
 11 12  2  0
 11 13  1  0
 13 14  2  0
 14 15  1  0
 15 16  2  0
 16 17  1  0
 17 18  1  0
 18 19  2  0
 19 20  1  0
 20 21  2  0
 19 22  1  0
 22 23  1  0
 23 24  1  0
 24 25  1  0
 10  5  2  0
 21 13  1  0
 20 16  1  0
 25 18  1  0
  1 26  1  0
  1 27  1  0
  1 28  1  0
  3 29  1  0
  3 30  1  0
  4 31  1  0
  4 32  1  0
  6 33  1  0
  9 34  1  0
  9 35  1  0
  9 36  1  0
 10 37  1  0
 14 38  1  0
 15 39  1  0
 17 40  1  0
 21 41  1  0
 22 42  1  0
 22 43  1  0
 23 44  1  0
 23 45  1  0
 24 46  1  0
 24 47  1  0
 25 48  1  0
 25 49  1  0
M  END
>  <Energy>  (548) 
116.68830748695007

>  <compound_id>  (548) 
54514

>  <target_id>  (548) 
1

>  <reference_id>  (548) 
40

>  <inspiration_ids>  (548) 
[7, 40]

>  <energy_score>  (548) 
43.05989591308315

>  <distance_score>  (548) 
4.854559383779213

>  <path>  (548) 
/opt/xchem-fragalysis-2/maxwin/BulkDock/SCRATCH/511025/C54514-P40/C54514-P40.minimised.mol

>  <scratch_subdir>  (548) 
/opt/xchem-fragalysis-2/maxwin/BulkDock/SCRATCH/511025/C54514-P40

>  <fragmenstein_runtime>  (548) 
10.494123935699463

>  <fragmenstein_outcome>  (548) 
too moved

>  <fragmenstein_mode>  (548) 
expansion

>  <fragmenstein_error>  (548) 


$$$$
C60060-P7
     RDKit          3D

 59 63  0  0  0  0  0  0  0  0999 V2000
  -12.4915   -2.7620   37.7561 C   0  0  0  0  0  0  0  0  0  0  0  0
  -12.2127   -1.3770   37.9217 O   0  0  0  0  0  0  0  0  0  0  0  0
  -11.4096   -0.8349   36.8672 C   0  0  0  0  0  0  0  0  0  0  0  0
   -9.9089   -0.8401   37.2326 C   0  0  0  0  0  0  0  0  0  0  0  0
   -9.0653   -0.4373   36.1066 N   0  0  0  0  0  0  0  0  0  0  0  0
   -8.9092    1.0062   35.8661 C   0  0  0  0  0  0  0  0  0  0  0  0
   -7.4387    1.2484   35.3712 C   0  0  0  0  0  0  0  0  0  0  0  0
   -6.4876    1.0224   36.5459 C   0  0  0  0  0  0  0  0  0  0  0  0
   -6.7123   -0.4096   36.9943 C   0  0  0  0  0  0  0  0  0  0  0  0
   -7.7245   -1.0341   36.0387 C   0  0  0  0  0  0  0  0  0  0  0  0
   -7.3254   -0.6377   34.3270 C   0  0  0  0  0  0  0  0  0  0  0  0
   -5.6368   -0.3407   33.6678 N   0  0  0  0  0  0  0  0  0  0  0  0
   -4.3711   -1.1847   34.2270 C   0  0  0  0  0  0  0  0  0  0  0  0
   -4.2498   -1.9272   35.0874 O   0  0  0  0  0  0  0  0  0  0  0  0
   -3.1687   -0.9522   33.2963 C   0  0  0  0  0  0  0  0  0  0  0  0
   -3.1810   -0.0082   32.2684 C   0  0  0  0  0  0  0  0  0  0  0  0
   -2.2816   -0.0765   31.1836 C   0  0  0  0  0  0  0  0  0  0  0  0
   -1.3835   -1.1496   31.1278 C   0  0  0  0  0  0  0  0  0  0  0  0
   -0.4771   -1.5101   30.1504 N   0  0  0  0  0  0  0  0  0  0  0  0
    0.2101   -2.6202   30.5496 C   0  0  0  0  0  0  0  0  0  0  0  0
   -0.2594   -3.0001   31.7913 C   0  0  0  0  0  0  0  0  0  0  0  0
   -1.2837   -2.0798   32.1628 C   0  0  0  0  0  0  0  0  0  0  0  0
   -2.1523   -1.9383   33.2747 C   0  0  0  0  0  0  0  0  0  0  0  0
    0.3164   -4.1480   32.5506 C   0  0  0  0  0  0  0  0  0  0  0  0
    1.2646   -4.9874   31.6714 C   0  0  0  0  0  0  0  0  0  0  0  0
    2.1416   -4.1308   30.7397 C   0  0  0  0  0  0  0  0  0  0  0  0
    1.2960   -3.2789   29.7785 C   0  0  0  0  0  0  0  0  0  0  0  0
   -7.0261   -0.0871   34.0749 C   0  0  0  0  0  0  0  0  0  0  0  0
  -13.0635   -3.1045   38.6224 H   0  0  0  0  0  0  0  0  0  0  0  0
  -11.5636   -3.3382   37.6974 H   0  0  0  0  0  0  0  0  0  0  0  0
  -13.0920   -2.9225   36.8558 H   0  0  0  0  0  0  0  0  0  0  0  0
  -11.7370    0.1997   36.7152 H   0  0  0  0  0  0  0  0  0  0  0  0
  -11.5930   -1.3749   35.9298 H   0  0  0  0  0  0  0  0  0  0  0  0
   -9.7282   -0.2227   38.1209 H   0  0  0  0  0  0  0  0  0  0  0  0
   -9.6582   -1.8611   37.5388 H   0  0  0  0  0  0  0  0  0  0  0  0
   -9.0905    1.5985   36.7709 H   0  0  0  0  0  0  0  0  0  0  0  0
   -9.6176    1.3374   35.1013 H   0  0  0  0  0  0  0  0  0  0  0  0
   -7.3188    2.2475   34.9360 H   0  0  0  0  0  0  0  0  0  0  0  0
   -5.4487    1.1703   36.2323 H   0  0  0  0  0  0  0  0  0  0  0  0
   -6.6874    1.7251   37.3620 H   0  0  0  0  0  0  0  0  0  0  0  0
   -7.0703   -0.4455   38.0294 H   0  0  0  0  0  0  0  0  0  0  0  0
   -5.7680   -0.9609   36.9700 H   0  0  0  0  0  0  0  0  0  0  0  0
   -7.7814   -2.1169   36.1254 H   0  0  0  0  0  0  0  0  0  0  0  0
   -6.9347   -1.8400   34.3594 H   0  0  0  0  0  0  0  0  0  0  0  0
   -8.2233   -1.2553   33.6267 H   0  0  0  0  0  0  0  0  0  0  0  0
   -3.9427    0.7687   32.2545 H   0  0  0  0  0  0  0  0  0  0  0  0
   -2.3394    0.6510   30.3800 H   0  0  0  0  0  0  0  0  0  0  0  0
   -0.3369   -1.0146   29.2803 H   0  0  0  0  0  0  0  0  0  0  0  0
   -2.0865   -2.6577   34.0843 H   0  0  0  0  0  0  0  0  0  0  0  0
   -0.4801   -4.7872   32.9475 H   0  0  0  0  0  0  0  0  0  0  0  0
    0.8774   -3.7526   33.4063 H   0  0  0  0  0  0  0  0  0  0  0  0
    0.6735   -5.6826   31.0615 H   0  0  0  0  0  0  0  0  0  0  0  0
    1.9083   -5.5899   32.3186 H   0  0  0  0  0  0  0  0  0  0  0  0
    2.8153   -4.7737   30.1649 H   0  0  0  0  0  0  0  0  0  0  0  0
    2.7739   -3.4749   31.3523 H   0  0  0  0  0  0  0  0  0  0  0  0
    1.9314   -2.5401   29.2785 H   0  0  0  0  0  0  0  0  0  0  0  0
    0.8539   -3.9193   29.0062 H   0  0  0  0  0  0  0  0  0  0  0  0
   -6.5884    0.9706   33.6551 H   0  0  0  0  0  0  0  0  0  0  0  0
   -7.6962    0.2969   32.9560 H   0  0  0  0  0  0  0  0  0  0  0  0
  1  2  1  0
  2  3  1  0
  3  4  1  0
  4  5  1  0
  5  6  1  0
  6  7  1  0
  7  8  1  0
  8  9  1  0
  9 10  1  0
 10 11  1  0
 11 12  1  0
 12 13  1  0
 13 14  2  0
 13 15  1  0
 15 16  2  0
 16 17  1  0
 17 18  2  0
 18 19  1  0
 19 20  1  0
 20 21  2  0
 21 22  1  0
 22 23  2  0
 21 24  1  0
 24 25  1  0
 25 26  1  0
 26 27  1  0
 12 28  1  0
 10  5  1  0
 23 15  1  0
 28  7  1  0
 22 18  1  0
 27 20  1  0
  1 29  1  0
  1 30  1  0
  1 31  1  0
  3 32  1  0
  3 33  1  0
  4 34  1  0
  4 35  1  0
  6 36  1  0
  6 37  1  0
  7 38  1  0
  8 39  1  0
  8 40  1  0
  9 41  1  0
  9 42  1  0
 10 43  1  0
 11 44  1  0
 11 45  1  0
 16 46  1  0
 17 47  1  0
 19 48  1  0
 23 49  1  0
 24 50  1  0
 24 51  1  0
 25 52  1  0
 25 53  1  0
 26 54  1  0
 26 55  1  0
 27 56  1  0
 27 57  1  0
 28 58  1  0
 28 59  1  0
M  END
>  <Energy>  (549) 
828.37194090763171

>  <compound_id>  (549) 
60060

>  <target_id>  (549) 
1

>  <reference_id>  (549) 
7

>  <inspiration_ids>  (549) 
[7, 40]

>  <energy_score>  (549) 
684.9770969802822

>  <distance_score>  (549) 
5.1840811405984315

>  <path>  (549) 
/opt/xchem-fragalysis-2/maxwin/BulkDock/SCRATCH/511025/C60060-P7/C60060-P7.minimised.mol

>  <scratch_subdir>  (549) 
/opt/xchem-fragalysis-2/maxwin/BulkDock/SCRATCH/511025/C60060-P7

>  <fragmenstein_runtime>  (549) 
12.663938522338867

>  <fragmenstein_outcome>  (549) 
too moved

>  <fragmenstein_mode>  (549) 
expansion

>  <fragmenstein_error>  (549) 


$$$$
C60060-P40
     RDKit          3D

 59 63  0  0  0  0  0  0  0  0999 V2000
  -11.6990   -3.8390   38.7569 C   0  0  0  0  0  0  0  0  0  0  0  0
  -10.6013   -3.3567   37.9856 O   0  0  0  0  0  0  0  0  0  0  0  0
  -10.8539   -2.0588   37.4697 C   0  0  0  0  0  0  0  0  0  0  0  0
   -9.8499   -1.6659   36.3573 C   0  0  0  0  0  0  0  0  0  0  0  0
   -8.4175   -1.5086   36.7060 N   0  0  0  0  0  0  0  0  0  0  0  0
   -8.1806   -0.7134   37.9184 C   0  0  0  0  0  0  0  0  0  0  0  0
   -6.9946    0.2351   37.6316 C   0  0  0  0  0  0  0  0  0  0  0  0
   -7.4776    1.3149   36.6583 C   0  0  0  0  0  0  0  0  0  0  0  0
   -7.9528    0.5817   35.4101 C   0  0  0  0  0  0  0  0  0  0  0  0
   -7.5966   -0.9125   35.5948 C   0  0  0  0  0  0  0  0  0  0  0  0
   -5.7755   -0.9170   36.1496 C   0  0  0  0  0  0  0  0  0  0  0  0
   -4.9080   -1.0740   35.1821 N   0  0  0  0  0  0  0  0  0  0  0  0
   -3.5254   -0.4117   34.7818 C   0  0  0  0  0  0  0  0  0  0  0  0
   -2.8406    0.3503   35.3170 O   0  0  0  0  0  0  0  0  0  0  0  0
   -3.0163   -0.9532   33.4772 C   0  0  0  0  0  0  0  0  0  0  0  0
   -3.1393   -0.1686   32.3322 C   0  0  0  0  0  0  0  0  0  0  0  0
   -2.5158   -0.5332   31.1277 C   0  0  0  0  0  0  0  0  0  0  0  0
   -1.7788   -1.7229   31.0923 C   0  0  0  0  0  0  0  0  0  0  0  0
   -1.1052   -2.3152   30.0437 N   0  0  0  0  0  0  0  0  0  0  0  0
   -0.4711   -3.4385   30.4910 C   0  0  0  0  0  0  0  0  0  0  0  0
   -0.7735   -3.6121   31.8270 C   0  0  0  0  0  0  0  0  0  0  0  0
   -1.6056   -2.5232   32.2244 C   0  0  0  0  0  0  0  0  0  0  0  0
   -2.2129   -2.1093   33.4392 C   0  0  0  0  0  0  0  0  0  0  0  0
   -0.2700   -4.7706   32.6189 C   0  0  0  0  0  0  0  0  0  0  0  0
    0.8602   -5.5083   31.8712 C   0  0  0  0  0  0  0  0  0  0  0  0
    0.5775   -5.6576   30.3614 C   0  0  0  0  0  0  0  0  0  0  0  0
    0.4172   -4.2930   29.6714 C   0  0  0  0  0  0  0  0  0  0  0  0
   -5.7283   -0.8322   36.9568 C   0  0  0  0  0  0  0  0  0  0  0  0
  -11.4016   -4.7758   39.2345 H   0  0  0  0  0  0  0  0  0  0  0  0
  -12.5609   -4.0279   38.1100 H   0  0  0  0  0  0  0  0  0  0  0  0
  -11.9638   -3.1216   39.5399 H   0  0  0  0  0  0  0  0  0  0  0  0
  -10.8404   -1.3367   38.2922 H   0  0  0  0  0  0  0  0  0  0  0  0
  -11.8578   -2.0332   37.0377 H   0  0  0  0  0  0  0  0  0  0  0  0
   -9.9056   -2.4269   35.5731 H   0  0  0  0  0  0  0  0  0  0  0  0
  -10.2393   -0.7365   35.9317 H   0  0  0  0  0  0  0  0  0  0  0  0
   -7.9356   -1.3892   38.7448 H   0  0  0  0  0  0  0  0  0  0  0  0
   -9.0448   -0.1108   38.2191 H   0  0  0  0  0  0  0  0  0  0  0  0
   -6.6072    0.6652   38.5620 H   0  0  0  0  0  0  0  0  0  0  0  0
   -8.2924    1.9047   37.0928 H   0  0  0  0  0  0  0  0  0  0  0  0
   -6.6669    2.0125   36.4200 H   0  0  0  0  0  0  0  0  0  0  0  0
   -7.4128    0.9581   34.5451 H   0  0  0  0  0  0  0  0  0  0  0  0
   -9.0118    0.7701   35.2217 H   0  0  0  0  0  0  0  0  0  0  0  0
   -7.6656   -1.4792   34.6574 H   0  0  0  0  0  0  0  0  0  0  0  0
   -5.9689   -2.0768   35.7572 H   0  0  0  0  0  0  0  0  0  0  0  0
   -5.7694    0.1532   35.5256 H   0  0  0  0  0  0  0  0  0  0  0  0
   -3.7040    0.7602   32.3811 H   0  0  0  0  0  0  0  0  0  0  0  0
   -2.6135    0.0953   30.2480 H   0  0  0  0  0  0  0  0  0  0  0  0
   -1.0841   -1.9553   29.0968 H   0  0  0  0  0  0  0  0  0  0  0  0
   -2.0410   -2.6672   34.3548 H   0  0  0  0  0  0  0  0  0  0  0  0
   -1.0983   -5.4678   32.7903 H   0  0  0  0  0  0  0  0  0  0  0  0
    0.0910   -4.4421   33.5997 H   0  0  0  0  0  0  0  0  0  0  0  0
    1.8000   -4.9560   32.0000 H   0  0  0  0  0  0  0  0  0  0  0  0
    1.0052   -6.4945   32.3252 H   0  0  0  0  0  0  0  0  0  0  0  0
   -0.3359   -6.2515   30.2283 H   0  0  0  0  0  0  0  0  0  0  0  0
    1.3891   -6.2065   29.8741 H   0  0  0  0  0  0  0  0  0  0  0  0
    1.3979   -3.8110   29.5808 H   0  0  0  0  0  0  0  0  0  0  0  0
    0.0187   -4.4198   28.6622 H   0  0  0  0  0  0  0  0  0  0  0  0
   -4.7922   -0.2689   37.5168 H   0  0  0  0  0  0  0  0  0  0  0  0
   -5.6221   -1.8044   37.6940 H   0  0  0  0  0  0  0  0  0  0  0  0
  1  2  1  0
  2  3  1  0
  3  4  1  0
  4  5  1  0
  5  6  1  0
  6  7  1  0
  7  8  1  0
  8  9  1  0
  9 10  1  0
 10 11  1  0
 11 12  1  0
 12 13  1  0
 13 14  2  0
 13 15  1  0
 15 16  2  0
 16 17  1  0
 17 18  2  0
 18 19  1  0
 19 20  1  0
 20 21  2  0
 21 22  1  0
 22 23  2  0
 21 24  1  0
 24 25  1  0
 25 26  1  0
 26 27  1  0
 12 28  1  0
 10  5  1  0
 23 15  1  0
 28  7  1  0
 22 18  1  0
 27 20  1  0
  1 29  1  0
  1 30  1  0
  1 31  1  0
  3 32  1  0
  3 33  1  0
  4 34  1  0
  4 35  1  0
  6 36  1  0
  6 37  1  0
  7 38  1  0
  8 39  1  0
  8 40  1  0
  9 41  1  0
  9 42  1  0
 10 43  1  0
 11 44  1  0
 11 45  1  0
 16 46  1  0
 17 47  1  0
 19 48  1  0
 23 49  1  0
 24 50  1  0
 24 51  1  0
 25 52  1  0
 25 53  1  0
 26 54  1  0
 26 55  1  0
 27 56  1  0
 27 57  1  0
 28 58  1  0
 28 59  1  0
M  END
>  <Energy>  (550) 
870.3381931054596

>  <compound_id>  (550) 
60060

>  <target_id>  (550) 
1

>  <reference_id>  (550) 
40

>  <inspiration_ids>  (550) 
[7, 40]

>  <energy_score>  (550) 
726.9433491781119

>  <distance_score>  (550) 
5.111070175471498

>  <path>  (550) 
/opt/xchem-fragalysis-2/maxwin/BulkDock/SCRATCH/511025/C60060-P40/C60060-P40.minimised.mol

>  <scratch_subdir>  (550) 
/opt/xchem-fragalysis-2/maxwin/BulkDock/SCRATCH/511025/C60060-P40

>  <fragmenstein_runtime>  (550) 
11.608169078826904

>  <fragmenstein_outcome>  (550) 
too moved

>  <fragmenstein_mode>  (550) 
expansion

>  <fragmenstein_error>  (550) 


$$$$
C60061-P7
     RDKit          3D

 53 56  0  0  0  0  0  0  0  0999 V2000
   -7.7182   -6.7420   33.7105 C   0  0  0  0  0  0  0  0  0  0  0  0
   -7.1320   -6.3197   35.2032 C   0  0  0  0  0  0  0  0  0  0  0  0
   -5.8423   -7.3527   36.1629 O   0  0  0  0  0  0  0  0  0  0  0  0
   -4.5552   -8.2908   35.3765 C   0  0  0  0  0  0  0  0  0  0  0  0
   -2.9238   -7.8128   35.1083 C   0  0  0  0  0  0  0  0  0  0  0  0
   -2.1718   -6.6471   35.6177 C   0  0  0  0  0  0  0  0  0  0  0  0
   -0.8898   -6.1997   35.3148 C   0  0  0  0  0  0  0  0  0  0  0  0
   -0.1181   -7.0606   34.6840 C   0  0  0  0  0  0  0  0  0  0  0  0
   -0.8183   -8.1309   34.1738 C   0  0  0  0  0  0  0  0  0  0  0  0
   -2.1817   -8.5034   34.2193 C   0  0  0  0  0  0  0  0  0  0  0  0
   -2.6764   -8.9698   32.8682 C   0  0  0  0  0  0  0  0  0  0  0  0
   -2.2281   -7.8549   32.0816 N   0  0  0  0  0  0  0  0  0  0  0  0
   -0.9761   -7.5357   31.5939 C   0  0  0  0  0  0  0  0  0  0  0  0
    0.0388   -8.1320   31.6244 O   0  0  0  0  0  0  0  0  0  0  0  0
   -0.8213   -6.3722   30.8465 C   0  0  0  0  0  0  0  0  0  0  0  0
   -0.4257   -5.0556   31.0669 C   0  0  0  0  0  0  0  0  0  0  0  0
   -0.0863   -4.2755   29.9419 C   0  0  0  0  0  0  0  0  0  0  0  0
   -0.1196   -4.9543   28.7122 C   0  0  0  0  0  0  0  0  0  0  0  0
    0.1593   -4.6656   27.4050 N   0  0  0  0  0  0  0  0  0  0  0  0
   -0.1929   -5.7680   26.5481 C   0  0  0  0  0  0  0  0  0  0  0  0
   -0.2465   -6.7890   27.4051 C   0  0  0  0  0  0  0  0  0  0  0  0
   -0.4302   -6.2775   28.6225 C   0  0  0  0  0  0  0  0  0  0  0  0
   -0.8222   -6.9998   29.6521 C   0  0  0  0  0  0  0  0  0  0  0  0
   -0.3696   -8.1322   26.9754 C   0  0  0  0  0  0  0  0  0  0  0  0
   -1.3571   -7.9583   25.8467 C   0  0  0  0  0  0  0  0  0  0  0  0
   -0.6920   -7.4848   24.6304 C   0  0  0  0  0  0  0  0  0  0  0  0
   -0.5309   -6.0763   24.9300 C   0  0  0  0  0  0  0  0  0  0  0  0
   -7.0419   -7.0851   32.9523 H   0  0  0  0  0  0  0  0  0  0  0  0
   -8.3696   -6.2179   33.1365 H   0  0  0  0  0  0  0  0  0  0  0  0
   -8.5799   -7.3941   33.7339 H   0  0  0  0  0  0  0  0  0  0  0  0
   -6.7749   -5.3042   35.1542 H   0  0  0  0  0  0  0  0  0  0  0  0
   -7.9825   -6.3973   35.8683 H   0  0  0  0  0  0  0  0  0  0  0  0
   -4.4696   -9.0928   36.1192 H   0  0  0  0  0  0  0  0  0  0  0  0
   -4.9052   -8.7686   34.4605 H   0  0  0  0  0  0  0  0  0  0  0  0
   -2.5802   -5.8760   36.2396 H   0  0  0  0  0  0  0  0  0  0  0  0
   -0.5275   -5.2073   35.5312 H   0  0  0  0  0  0  0  0  0  0  0  0
    0.9076   -6.8450   34.4207 H   0  0  0  0  0  0  0  0  0  0  0  0
   -0.2661   -8.6514   33.4229 H   0  0  0  0  0  0  0  0  0  0  0  0
   -3.7493   -9.0938   32.7456 H   0  0  0  0  0  0  0  0  0  0  0  0
   -2.1409   -9.8595   32.5461 H   0  0  0  0  0  0  0  0  0  0  0  0
   -2.8360   -7.0729   31.9480 H   0  0  0  0  0  0  0  0  0  0  0  0
   -0.3310   -4.6659   32.0743 H   0  0  0  0  0  0  0  0  0  0  0  0
    0.2310   -3.2430   30.0240 H   0  0  0  0  0  0  0  0  0  0  0  0
    0.5028   -3.7474   27.1544 H   0  0  0  0  0  0  0  0  0  0  0  0
   -0.9176   -8.0683   29.5238 H   0  0  0  0  0  0  0  0  0  0  0  0
    0.6046   -8.4101   26.6984 H   0  0  0  0  0  0  0  0  0  0  0  0
   -0.5716   -8.8815   27.7408 H   0  0  0  0  0  0  0  0  0  0  0  0
   -1.9726   -8.8015   25.6073 H   0  0  0  0  0  0  0  0  0  0  0  0
   -2.1203   -7.2261   26.1579 H   0  0  0  0  0  0  0  0  0  0  0  0
   -1.3110   -7.6772   23.7586 H   0  0  0  0  0  0  0  0  0  0  0  0
    0.2645   -7.9111   24.3568 H   0  0  0  0  0  0  0  0  0  0  0  0
    0.1733   -5.8418   24.1300 H   0  0  0  0  0  0  0  0  0  0  0  0
   -1.4937   -5.6619   24.6437 H   0  0  0  0  0  0  0  0  0  0  0  0
  1  2  1  0
  2  3  1  0
  3  4  1  0
  4  5  1  0
  5  6  2  0
  6  7  1  0
  7  8  2  0
  8  9  1  0
  9 10  2  0
 10 11  1  0
 11 12  1  0
 12 13  1  0
 13 14  2  0
 13 15  1  0
 15 16  2  0
 16 17  1  0
 17 18  2  0
 18 19  1  0
 19 20  1  0
 20 21  2  0
 21 22  1  0
 22 23  2  0
 21 24  1  0
 24 25  1  0
 25 26  1  0
 26 27  1  0
 10  5  1  0
 23 15  1  0
 22 18  1  0
 27 20  1  0
  1 28  1  0
  1 29  1  0
  1 30  1  0
  2 31  1  0
  2 32  1  0
  4 33  1  0
  4 34  1  0
  6 35  1  0
  7 36  1  0
  8 37  1  0
  9 38  1  0
 11 39  1  0
 11 40  1  0
 12 41  1  0
 16 42  1  0
 17 43  1  0
 19 44  1  0
 23 45  1  0
 24 46  1  0
 24 47  1  0
 25 48  1  0
 25 49  1  0
 26 50  1  0
 26 51  1  0
 27 52  1  0
 27 53  1  0
M  END
>  <Energy>  (551) 
393.5449447791197

>  <compound_id>  (551) 
60061

>  <target_id>  (551) 
1

>  <reference_id>  (551) 
7

>  <inspiration_ids>  (551) 
[7, 40]

>  <energy_score>  (551) 
314.1682395127588

>  <distance_score>  (551) 
1.4974612374931877

>  <path>  (551) 
/opt/xchem-fragalysis-2/maxwin/BulkDock/SCRATCH/511025/C60061-P7/C60061-P7.minimised.mol

>  <scratch_subdir>  (551) 
/opt/xchem-fragalysis-2/maxwin/BulkDock/SCRATCH/511025/C60061-P7

>  <fragmenstein_runtime>  (551) 
22.077486276626587

>  <fragmenstein_outcome>  (551) 
too moved

>  <fragmenstein_mode>  (551) 
expansion

>  <fragmenstein_error>  (551) 


$$$$
C60061-P40
     RDKit          3D

 53 56  0  0  0  0  0  0  0  0999 V2000
   -6.0419   -4.4695   33.9745 C   0  0  0  0  0  0  0  0  0  0  0  0
   -6.4977   -6.3343   34.4125 C   0  0  0  0  0  0  0  0  0  0  0  0
   -4.9809   -7.5303   34.8657 O   0  0  0  0  0  0  0  0  0  0  0  0
   -3.5278   -8.2159   34.7431 C   0  0  0  0  0  0  0  0  0  0  0  0
   -2.0715   -7.4699   34.6274 C   0  0  0  0  0  0  0  0  0  0  0  0
   -1.5443   -6.6058   35.6195 C   0  0  0  0  0  0  0  0  0  0  0  0
   -0.1991   -6.2250   35.7417 C   0  0  0  0  0  0  0  0  0  0  0  0
    0.7111   -6.6464   34.8130 C   0  0  0  0  0  0  0  0  0  0  0  0
    0.2184   -7.3339   33.7225 C   0  0  0  0  0  0  0  0  0  0  0  0
   -1.1591   -7.6909   33.5672 C   0  0  0  0  0  0  0  0  0  0  0  0
   -1.5309   -8.1202   32.1638 C   0  0  0  0  0  0  0  0  0  0  0  0
   -0.9118   -7.2000   31.2095 N   0  0  0  0  0  0  0  0  0  0  0  0
   -0.8375   -5.7667   31.1976 C   0  0  0  0  0  0  0  0  0  0  0  0
   -1.3314   -4.9530   31.9236 O   0  0  0  0  0  0  0  0  0  0  0  0
    0.0582   -5.1512   30.1478 C   0  0  0  0  0  0  0  0  0  0  0  0
   -0.0816   -3.7655   29.9538 C   0  0  0  0  0  0  0  0  0  0  0  0
    0.7583   -3.0422   29.1120 C   0  0  0  0  0  0  0  0  0  0  0  0
    1.7706   -3.7482   28.4714 C   0  0  0  0  0  0  0  0  0  0  0  0
    2.7689   -3.2699   27.6562 N   0  0  0  0  0  0  0  0  0  0  0  0
    3.5472   -4.3045   27.2356 C   0  0  0  0  0  0  0  0  0  0  0  0
    3.0414   -5.4754   27.7600 C   0  0  0  0  0  0  0  0  0  0  0  0
    1.9307   -5.1301   28.5860 C   0  0  0  0  0  0  0  0  0  0  0  0
    1.0511   -5.8443   29.4348 C   0  0  0  0  0  0  0  0  0  0  0  0
    3.6873   -6.7860   27.4773 C   0  0  0  0  0  0  0  0  0  0  0  0
    4.6176   -6.7100   26.2541 C   0  0  0  0  0  0  0  0  0  0  0  0
    5.5295   -5.4738   26.3055 C   0  0  0  0  0  0  0  0  0  0  0  0
    4.7322   -4.1604   26.3479 C   0  0  0  0  0  0  0  0  0  0  0  0
   -5.4179   -4.3620   33.0863 H   0  0  0  0  0  0  0  0  0  0  0  0
   -5.6467   -3.9290   34.8355 H   0  0  0  0  0  0  0  0  0  0  0  0
   -6.6746   -3.6221   33.6391 H   0  0  0  0  0  0  0  0  0  0  0  0
   -7.1315   -6.3584   35.3137 H   0  0  0  0  0  0  0  0  0  0  0  0
   -7.0895   -6.8653   33.6393 H   0  0  0  0  0  0  0  0  0  0  0  0
   -3.4849   -8.9067   35.5953 H   0  0  0  0  0  0  0  0  0  0  0  0
   -3.6024   -8.9133   33.9141 H   0  0  0  0  0  0  0  0  0  0  0  0
   -2.1533   -6.0788   36.3312 H   0  0  0  0  0  0  0  0  0  0  0  0
    0.1053   -5.5693   36.5535 H   0  0  0  0  0  0  0  0  0  0  0  0
    1.7507   -6.3453   34.8715 H   0  0  0  0  0  0  0  0  0  0  0  0
    0.9036   -7.4962   32.9001 H   0  0  0  0  0  0  0  0  0  0  0  0
   -2.6022   -8.1074   31.9825 H   0  0  0  0  0  0  0  0  0  0  0  0
   -1.1536   -9.1201   31.9483 H   0  0  0  0  0  0  0  0  0  0  0  0
   -0.4392   -7.5592   30.3991 H   0  0  0  0  0  0  0  0  0  0  0  0
   -0.8550   -3.2093   30.4847 H   0  0  0  0  0  0  0  0  0  0  0  0
    0.6340   -1.9706   28.9877 H   0  0  0  0  0  0  0  0  0  0  0  0
    2.8895   -2.2945   27.4150 H   0  0  0  0  0  0  0  0  0  0  0  0
    1.1982   -6.9059   29.5377 H   0  0  0  0  0  0  0  0  0  0  0  0
    4.2730   -7.0792   28.3557 H   0  0  0  0  0  0  0  0  0  0  0  0
    2.9248   -7.5482   27.2989 H   0  0  0  0  0  0  0  0  0  0  0  0
    5.2272   -7.6187   26.1998 H   0  0  0  0  0  0  0  0  0  0  0  0
    4.0147   -6.6759   25.3390 H   0  0  0  0  0  0  0  0  0  0  0  0
    6.2006   -5.4685   25.4398 H   0  0  0  0  0  0  0  0  0  0  0  0
    6.1638   -5.5411   27.1990 H   0  0  0  0  0  0  0  0  0  0  0  0
    5.3799   -3.3456   26.6896 H   0  0  0  0  0  0  0  0  0  0  0  0
    4.3854   -3.9032   25.3449 H   0  0  0  0  0  0  0  0  0  0  0  0
  1  2  1  0
  2  3  1  0
  3  4  1  0
  4  5  1  0
  5  6  2  0
  6  7  1  0
  7  8  2  0
  8  9  1  0
  9 10  2  0
 10 11  1  0
 11 12  1  0
 12 13  1  0
 13 14  2  0
 13 15  1  0
 15 16  2  0
 16 17  1  0
 17 18  2  0
 18 19  1  0
 19 20  1  0
 20 21  2  0
 21 22  1  0
 22 23  2  0
 21 24  1  0
 24 25  1  0
 25 26  1  0
 26 27  1  0
 10  5  1  0
 23 15  1  0
 22 18  1  0
 27 20  1  0
  1 28  1  0
  1 29  1  0
  1 30  1  0
  2 31  1  0
  2 32  1  0
  4 33  1  0
  4 34  1  0
  6 35  1  0
  7 36  1  0
  8 37  1  0
  9 38  1  0
 11 39  1  0
 11 40  1  0
 12 41  1  0
 16 42  1  0
 17 43  1  0
 19 44  1  0
 23 45  1  0
 24 46  1  0
 24 47  1  0
 25 48  1  0
 25 49  1  0
 26 50  1  0
 26 51  1  0
 27 52  1  0
 27 53  1  0
M  END
>  <Energy>  (552) 
294.84617403778884

>  <compound_id>  (552) 
60061

>  <target_id>  (552) 
1

>  <reference_id>  (552) 
40

>  <inspiration_ids>  (552) 
[7, 40]

>  <energy_score>  (552) 
215.46946877142642

>  <distance_score>  (552) 
1.9570859093336959

>  <path>  (552) 
/opt/xchem-fragalysis-2/maxwin/BulkDock/SCRATCH/511025/C60061-P40/C60061-P40.minimised.mol

>  <scratch_subdir>  (552) 
/opt/xchem-fragalysis-2/maxwin/BulkDock/SCRATCH/511025/C60061-P40

>  <fragmenstein_runtime>  (552) 
15.939424753189087

>  <fragmenstein_outcome>  (552) 
too moved

>  <fragmenstein_mode>  (552) 
expansion

>  <fragmenstein_error>  (552) 


$$$$
C60061-P7
     RDKit          3D

 53 56  0  0  0  0  0  0  0  0999 V2000
   -7.7182   -6.7420   33.7105 C   0  0  0  0  0  0  0  0  0  0  0  0
   -7.1320   -6.3197   35.2032 C   0  0  0  0  0  0  0  0  0  0  0  0
   -5.8423   -7.3527   36.1629 O   0  0  0  0  0  0  0  0  0  0  0  0
   -4.5552   -8.2908   35.3765 C   0  0  0  0  0  0  0  0  0  0  0  0
   -2.9238   -7.8128   35.1083 C   0  0  0  0  0  0  0  0  0  0  0  0
   -2.1718   -6.6471   35.6177 C   0  0  0  0  0  0  0  0  0  0  0  0
   -0.8898   -6.1997   35.3148 C   0  0  0  0  0  0  0  0  0  0  0  0
   -0.1181   -7.0606   34.6840 C   0  0  0  0  0  0  0  0  0  0  0  0
   -0.8183   -8.1309   34.1738 C   0  0  0  0  0  0  0  0  0  0  0  0
   -2.1817   -8.5034   34.2193 C   0  0  0  0  0  0  0  0  0  0  0  0
   -2.6764   -8.9698   32.8682 C   0  0  0  0  0  0  0  0  0  0  0  0
   -2.2281   -7.8549   32.0816 N   0  0  0  0  0  0  0  0  0  0  0  0
   -0.9761   -7.5357   31.5939 C   0  0  0  0  0  0  0  0  0  0  0  0
    0.0388   -8.1320   31.6244 O   0  0  0  0  0  0  0  0  0  0  0  0
   -0.8213   -6.3722   30.8465 C   0  0  0  0  0  0  0  0  0  0  0  0
   -0.4257   -5.0556   31.0669 C   0  0  0  0  0  0  0  0  0  0  0  0
   -0.0863   -4.2755   29.9419 C   0  0  0  0  0  0  0  0  0  0  0  0
   -0.1196   -4.9543   28.7122 C   0  0  0  0  0  0  0  0  0  0  0  0
    0.1593   -4.6656   27.4050 N   0  0  0  0  0  0  0  0  0  0  0  0
   -0.1929   -5.7680   26.5481 C   0  0  0  0  0  0  0  0  0  0  0  0
   -0.2465   -6.7890   27.4051 C   0  0  0  0  0  0  0  0  0  0  0  0
   -0.4302   -6.2775   28.6225 C   0  0  0  0  0  0  0  0  0  0  0  0
   -0.8222   -6.9998   29.6521 C   0  0  0  0  0  0  0  0  0  0  0  0
   -0.3696   -8.1322   26.9754 C   0  0  0  0  0  0  0  0  0  0  0  0
   -1.3571   -7.9583   25.8467 C   0  0  0  0  0  0  0  0  0  0  0  0
   -0.6920   -7.4848   24.6304 C   0  0  0  0  0  0  0  0  0  0  0  0
   -0.5309   -6.0763   24.9300 C   0  0  0  0  0  0  0  0  0  0  0  0
   -7.0419   -7.0851   32.9523 H   0  0  0  0  0  0  0  0  0  0  0  0
   -8.3696   -6.2179   33.1365 H   0  0  0  0  0  0  0  0  0  0  0  0
   -8.5799   -7.3941   33.7339 H   0  0  0  0  0  0  0  0  0  0  0  0
   -6.7749   -5.3042   35.1542 H   0  0  0  0  0  0  0  0  0  0  0  0
   -7.9825   -6.3973   35.8683 H   0  0  0  0  0  0  0  0  0  0  0  0
   -4.4696   -9.0928   36.1192 H   0  0  0  0  0  0  0  0  0  0  0  0
   -4.9052   -8.7686   34.4605 H   0  0  0  0  0  0  0  0  0  0  0  0
   -2.5802   -5.8760   36.2396 H   0  0  0  0  0  0  0  0  0  0  0  0
   -0.5275   -5.2073   35.5312 H   0  0  0  0  0  0  0  0  0  0  0  0
    0.9076   -6.8450   34.4207 H   0  0  0  0  0  0  0  0  0  0  0  0
   -0.2661   -8.6514   33.4229 H   0  0  0  0  0  0  0  0  0  0  0  0
   -3.7493   -9.0938   32.7456 H   0  0  0  0  0  0  0  0  0  0  0  0
   -2.1409   -9.8595   32.5461 H   0  0  0  0  0  0  0  0  0  0  0  0
   -2.8360   -7.0729   31.9480 H   0  0  0  0  0  0  0  0  0  0  0  0
   -0.3310   -4.6659   32.0743 H   0  0  0  0  0  0  0  0  0  0  0  0
    0.2310   -3.2430   30.0240 H   0  0  0  0  0  0  0  0  0  0  0  0
    0.5028   -3.7474   27.1544 H   0  0  0  0  0  0  0  0  0  0  0  0
   -0.9176   -8.0683   29.5238 H   0  0  0  0  0  0  0  0  0  0  0  0
    0.6046   -8.4101   26.6984 H   0  0  0  0  0  0  0  0  0  0  0  0
   -0.5716   -8.8815   27.7408 H   0  0  0  0  0  0  0  0  0  0  0  0
   -1.9726   -8.8015   25.6073 H   0  0  0  0  0  0  0  0  0  0  0  0
   -2.1203   -7.2261   26.1579 H   0  0  0  0  0  0  0  0  0  0  0  0
   -1.3110   -7.6772   23.7586 H   0  0  0  0  0  0  0  0  0  0  0  0
    0.2645   -7.9111   24.3568 H   0  0  0  0  0  0  0  0  0  0  0  0
    0.1733   -5.8418   24.1300 H   0  0  0  0  0  0  0  0  0  0  0  0
   -1.4937   -5.6619   24.6437 H   0  0  0  0  0  0  0  0  0  0  0  0
  1  2  1  0
  2  3  1  0
  3  4  1  0
  4  5  1  0
  5  6  2  0
  6  7  1  0
  7  8  2  0
  8  9  1  0
  9 10  2  0
 10 11  1  0
 11 12  1  0
 12 13  1  0
 13 14  2  0
 13 15  1  0
 15 16  2  0
 16 17  1  0
 17 18  2  0
 18 19  1  0
 19 20  1  0
 20 21  2  0
 21 22  1  0
 22 23  2  0
 21 24  1  0
 24 25  1  0
 25 26  1  0
 26 27  1  0
 10  5  1  0
 23 15  1  0
 22 18  1  0
 27 20  1  0
  1 28  1  0
  1 29  1  0
  1 30  1  0
  2 31  1  0
  2 32  1  0
  4 33  1  0
  4 34  1  0
  6 35  1  0
  7 36  1  0
  8 37  1  0
  9 38  1  0
 11 39  1  0
 11 40  1  0
 12 41  1  0
 16 42  1  0
 17 43  1  0
 19 44  1  0
 23 45  1  0
 24 46  1  0
 24 47  1  0
 25 48  1  0
 25 49  1  0
 26 50  1  0
 26 51  1  0
 27 52  1  0
 27 53  1  0
M  END
>  <Energy>  (553) 
393.5449447791197

>  <compound_id>  (553) 
60061

>  <target_id>  (553) 
1

>  <reference_id>  (553) 
7

>  <inspiration_ids>  (553) 
[7, 40]

>  <energy_score>  (553) 
314.1682395127588

>  <distance_score>  (553) 
1.4974612374931877

>  <path>  (553) 
/opt/xchem-fragalysis-2/maxwin/BulkDock/SCRATCH/511025/C60061-P7/C60061-P7.minimised.mol

>  <scratch_subdir>  (553) 
/opt/xchem-fragalysis-2/maxwin/BulkDock/SCRATCH/511025/C60061-P7

>  <fragmenstein_runtime>  (553) 
22.856220722198486

>  <fragmenstein_outcome>  (553) 
too moved

>  <fragmenstein_mode>  (553) 
expansion

>  <fragmenstein_error>  (553) 


$$$$
C60061-P40
     RDKit          3D

 53 56  0  0  0  0  0  0  0  0999 V2000
   -6.0419   -4.4695   33.9745 C   0  0  0  0  0  0  0  0  0  0  0  0
   -6.4977   -6.3343   34.4125 C   0  0  0  0  0  0  0  0  0  0  0  0
   -4.9809   -7.5303   34.8657 O   0  0  0  0  0  0  0  0  0  0  0  0
   -3.5278   -8.2159   34.7431 C   0  0  0  0  0  0  0  0  0  0  0  0
   -2.0715   -7.4699   34.6274 C   0  0  0  0  0  0  0  0  0  0  0  0
   -1.5443   -6.6058   35.6195 C   0  0  0  0  0  0  0  0  0  0  0  0
   -0.1991   -6.2250   35.7417 C   0  0  0  0  0  0  0  0  0  0  0  0
    0.7111   -6.6464   34.8130 C   0  0  0  0  0  0  0  0  0  0  0  0
    0.2184   -7.3339   33.7225 C   0  0  0  0  0  0  0  0  0  0  0  0
   -1.1591   -7.6909   33.5672 C   0  0  0  0  0  0  0  0  0  0  0  0
   -1.5309   -8.1202   32.1638 C   0  0  0  0  0  0  0  0  0  0  0  0
   -0.9118   -7.2000   31.2095 N   0  0  0  0  0  0  0  0  0  0  0  0
   -0.8375   -5.7667   31.1976 C   0  0  0  0  0  0  0  0  0  0  0  0
   -1.3314   -4.9530   31.9236 O   0  0  0  0  0  0  0  0  0  0  0  0
    0.0582   -5.1512   30.1478 C   0  0  0  0  0  0  0  0  0  0  0  0
   -0.0816   -3.7655   29.9538 C   0  0  0  0  0  0  0  0  0  0  0  0
    0.7583   -3.0422   29.1120 C   0  0  0  0  0  0  0  0  0  0  0  0
    1.7706   -3.7482   28.4714 C   0  0  0  0  0  0  0  0  0  0  0  0
    2.7689   -3.2699   27.6562 N   0  0  0  0  0  0  0  0  0  0  0  0
    3.5472   -4.3045   27.2356 C   0  0  0  0  0  0  0  0  0  0  0  0
    3.0414   -5.4754   27.7600 C   0  0  0  0  0  0  0  0  0  0  0  0
    1.9307   -5.1301   28.5860 C   0  0  0  0  0  0  0  0  0  0  0  0
    1.0511   -5.8443   29.4348 C   0  0  0  0  0  0  0  0  0  0  0  0
    3.6873   -6.7860   27.4773 C   0  0  0  0  0  0  0  0  0  0  0  0
    4.6176   -6.7100   26.2541 C   0  0  0  0  0  0  0  0  0  0  0  0
    5.5295   -5.4738   26.3055 C   0  0  0  0  0  0  0  0  0  0  0  0
    4.7322   -4.1604   26.3479 C   0  0  0  0  0  0  0  0  0  0  0  0
   -5.4179   -4.3620   33.0863 H   0  0  0  0  0  0  0  0  0  0  0  0
   -5.6467   -3.9290   34.8355 H   0  0  0  0  0  0  0  0  0  0  0  0
   -6.6746   -3.6221   33.6391 H   0  0  0  0  0  0  0  0  0  0  0  0
   -7.1315   -6.3584   35.3137 H   0  0  0  0  0  0  0  0  0  0  0  0
   -7.0895   -6.8653   33.6393 H   0  0  0  0  0  0  0  0  0  0  0  0
   -3.4849   -8.9067   35.5953 H   0  0  0  0  0  0  0  0  0  0  0  0
   -3.6024   -8.9133   33.9141 H   0  0  0  0  0  0  0  0  0  0  0  0
   -2.1533   -6.0788   36.3312 H   0  0  0  0  0  0  0  0  0  0  0  0
    0.1053   -5.5693   36.5535 H   0  0  0  0  0  0  0  0  0  0  0  0
    1.7507   -6.3453   34.8715 H   0  0  0  0  0  0  0  0  0  0  0  0
    0.9036   -7.4962   32.9001 H   0  0  0  0  0  0  0  0  0  0  0  0
   -2.6022   -8.1074   31.9825 H   0  0  0  0  0  0  0  0  0  0  0  0
   -1.1536   -9.1201   31.9483 H   0  0  0  0  0  0  0  0  0  0  0  0
   -0.4392   -7.5592   30.3991 H   0  0  0  0  0  0  0  0  0  0  0  0
   -0.8550   -3.2093   30.4847 H   0  0  0  0  0  0  0  0  0  0  0  0
    0.6340   -1.9706   28.9877 H   0  0  0  0  0  0  0  0  0  0  0  0
    2.8895   -2.2945   27.4150 H   0  0  0  0  0  0  0  0  0  0  0  0
    1.1982   -6.9059   29.5377 H   0  0  0  0  0  0  0  0  0  0  0  0
    4.2730   -7.0792   28.3557 H   0  0  0  0  0  0  0  0  0  0  0  0
    2.9248   -7.5482   27.2989 H   0  0  0  0  0  0  0  0  0  0  0  0
    5.2272   -7.6187   26.1998 H   0  0  0  0  0  0  0  0  0  0  0  0
    4.0147   -6.6759   25.3390 H   0  0  0  0  0  0  0  0  0  0  0  0
    6.2006   -5.4685   25.4398 H   0  0  0  0  0  0  0  0  0  0  0  0
    6.1638   -5.5411   27.1990 H   0  0  0  0  0  0  0  0  0  0  0  0
    5.3799   -3.3456   26.6896 H   0  0  0  0  0  0  0  0  0  0  0  0
    4.3854   -3.9032   25.3449 H   0  0  0  0  0  0  0  0  0  0  0  0
  1  2  1  0
  2  3  1  0
  3  4  1  0
  4  5  1  0
  5  6  2  0
  6  7  1  0
  7  8  2  0
  8  9  1  0
  9 10  2  0
 10 11  1  0
 11 12  1  0
 12 13  1  0
 13 14  2  0
 13 15  1  0
 15 16  2  0
 16 17  1  0
 17 18  2  0
 18 19  1  0
 19 20  1  0
 20 21  2  0
 21 22  1  0
 22 23  2  0
 21 24  1  0
 24 25  1  0
 25 26  1  0
 26 27  1  0
 10  5  1  0
 23 15  1  0
 22 18  1  0
 27 20  1  0
  1 28  1  0
  1 29  1  0
  1 30  1  0
  2 31  1  0
  2 32  1  0
  4 33  1  0
  4 34  1  0
  6 35  1  0
  7 36  1  0
  8 37  1  0
  9 38  1  0
 11 39  1  0
 11 40  1  0
 12 41  1  0
 16 42  1  0
 17 43  1  0
 19 44  1  0
 23 45  1  0
 24 46  1  0
 24 47  1  0
 25 48  1  0
 25 49  1  0
 26 50  1  0
 26 51  1  0
 27 52  1  0
 27 53  1  0
M  END
>  <Energy>  (554) 
294.84617403778884

>  <compound_id>  (554) 
60061

>  <target_id>  (554) 
1

>  <reference_id>  (554) 
40

>  <inspiration_ids>  (554) 
[7, 40]

>  <energy_score>  (554) 
215.46946877142642

>  <distance_score>  (554) 
1.9570859093336959

>  <path>  (554) 
/opt/xchem-fragalysis-2/maxwin/BulkDock/SCRATCH/511025/C60061-P40/C60061-P40.minimised.mol

>  <scratch_subdir>  (554) 
/opt/xchem-fragalysis-2/maxwin/BulkDock/SCRATCH/511025/C60061-P40

>  <fragmenstein_runtime>  (554) 
15.370283603668213

>  <fragmenstein_outcome>  (554) 
too moved

>  <fragmenstein_mode>  (554) 
expansion

>  <fragmenstein_error>  (554) 


$$$$
C60060-P7
     RDKit          3D

 59 63  0  0  0  0  0  0  0  0999 V2000
  -12.4915   -2.7620   37.7561 C   0  0  0  0  0  0  0  0  0  0  0  0
  -12.2127   -1.3770   37.9217 O   0  0  0  0  0  0  0  0  0  0  0  0
  -11.4096   -0.8349   36.8672 C   0  0  0  0  0  0  0  0  0  0  0  0
   -9.9089   -0.8401   37.2326 C   0  0  0  0  0  0  0  0  0  0  0  0
   -9.0653   -0.4373   36.1066 N   0  0  0  0  0  0  0  0  0  0  0  0
   -8.9092    1.0062   35.8661 C   0  0  0  0  0  0  0  0  0  0  0  0
   -7.4387    1.2484   35.3712 C   0  0  0  0  0  0  0  0  0  0  0  0
   -6.4876    1.0224   36.5459 C   0  0  0  0  0  0  0  0  0  0  0  0
   -6.7123   -0.4096   36.9943 C   0  0  0  0  0  0  0  0  0  0  0  0
   -7.7245   -1.0341   36.0387 C   0  0  0  0  0  0  0  0  0  0  0  0
   -7.3254   -0.6377   34.3270 C   0  0  0  0  0  0  0  0  0  0  0  0
   -5.6368   -0.3407   33.6678 N   0  0  0  0  0  0  0  0  0  0  0  0
   -4.3711   -1.1847   34.2270 C   0  0  0  0  0  0  0  0  0  0  0  0
   -4.2498   -1.9272   35.0874 O   0  0  0  0  0  0  0  0  0  0  0  0
   -3.1687   -0.9522   33.2963 C   0  0  0  0  0  0  0  0  0  0  0  0
   -3.1810   -0.0082   32.2684 C   0  0  0  0  0  0  0  0  0  0  0  0
   -2.2816   -0.0765   31.1836 C   0  0  0  0  0  0  0  0  0  0  0  0
   -1.3835   -1.1496   31.1278 C   0  0  0  0  0  0  0  0  0  0  0  0
   -0.4771   -1.5101   30.1504 N   0  0  0  0  0  0  0  0  0  0  0  0
    0.2101   -2.6202   30.5496 C   0  0  0  0  0  0  0  0  0  0  0  0
   -0.2594   -3.0001   31.7913 C   0  0  0  0  0  0  0  0  0  0  0  0
   -1.2837   -2.0798   32.1628 C   0  0  0  0  0  0  0  0  0  0  0  0
   -2.1523   -1.9383   33.2747 C   0  0  0  0  0  0  0  0  0  0  0  0
    0.3164   -4.1480   32.5506 C   0  0  0  0  0  0  0  0  0  0  0  0
    1.2646   -4.9874   31.6714 C   0  0  0  0  0  0  0  0  0  0  0  0
    2.1416   -4.1308   30.7397 C   0  0  0  0  0  0  0  0  0  0  0  0
    1.2960   -3.2789   29.7785 C   0  0  0  0  0  0  0  0  0  0  0  0
   -7.0261   -0.0871   34.0749 C   0  0  0  0  0  0  0  0  0  0  0  0
  -13.0635   -3.1045   38.6224 H   0  0  0  0  0  0  0  0  0  0  0  0
  -11.5636   -3.3382   37.6974 H   0  0  0  0  0  0  0  0  0  0  0  0
  -13.0920   -2.9225   36.8558 H   0  0  0  0  0  0  0  0  0  0  0  0
  -11.7370    0.1997   36.7152 H   0  0  0  0  0  0  0  0  0  0  0  0
  -11.5930   -1.3749   35.9298 H   0  0  0  0  0  0  0  0  0  0  0  0
   -9.7282   -0.2227   38.1209 H   0  0  0  0  0  0  0  0  0  0  0  0
   -9.6582   -1.8611   37.5388 H   0  0  0  0  0  0  0  0  0  0  0  0
   -9.0905    1.5985   36.7709 H   0  0  0  0  0  0  0  0  0  0  0  0
   -9.6176    1.3374   35.1013 H   0  0  0  0  0  0  0  0  0  0  0  0
   -7.3188    2.2475   34.9360 H   0  0  0  0  0  0  0  0  0  0  0  0
   -5.4487    1.1703   36.2323 H   0  0  0  0  0  0  0  0  0  0  0  0
   -6.6874    1.7251   37.3620 H   0  0  0  0  0  0  0  0  0  0  0  0
   -7.0703   -0.4455   38.0294 H   0  0  0  0  0  0  0  0  0  0  0  0
   -5.7680   -0.9609   36.9700 H   0  0  0  0  0  0  0  0  0  0  0  0
   -7.7814   -2.1169   36.1254 H   0  0  0  0  0  0  0  0  0  0  0  0
   -6.9347   -1.8400   34.3594 H   0  0  0  0  0  0  0  0  0  0  0  0
   -8.2233   -1.2553   33.6267 H   0  0  0  0  0  0  0  0  0  0  0  0
   -3.9427    0.7687   32.2545 H   0  0  0  0  0  0  0  0  0  0  0  0
   -2.3394    0.6510   30.3800 H   0  0  0  0  0  0  0  0  0  0  0  0
   -0.3369   -1.0146   29.2803 H   0  0  0  0  0  0  0  0  0  0  0  0
   -2.0865   -2.6577   34.0843 H   0  0  0  0  0  0  0  0  0  0  0  0
   -0.4801   -4.7872   32.9475 H   0  0  0  0  0  0  0  0  0  0  0  0
    0.8774   -3.7526   33.4063 H   0  0  0  0  0  0  0  0  0  0  0  0
    0.6735   -5.6826   31.0615 H   0  0  0  0  0  0  0  0  0  0  0  0
    1.9083   -5.5899   32.3186 H   0  0  0  0  0  0  0  0  0  0  0  0
    2.8153   -4.7737   30.1649 H   0  0  0  0  0  0  0  0  0  0  0  0
    2.7739   -3.4749   31.3523 H   0  0  0  0  0  0  0  0  0  0  0  0
    1.9314   -2.5401   29.2785 H   0  0  0  0  0  0  0  0  0  0  0  0
    0.8539   -3.9193   29.0062 H   0  0  0  0  0  0  0  0  0  0  0  0
   -6.5884    0.9706   33.6551 H   0  0  0  0  0  0  0  0  0  0  0  0
   -7.6962    0.2969   32.9560 H   0  0  0  0  0  0  0  0  0  0  0  0
  1  2  1  0
  2  3  1  0
  3  4  1  0
  4  5  1  0
  5  6  1  0
  6  7  1  0
  7  8  1  0
  8  9  1  0
  9 10  1  0
 10 11  1  0
 11 12  1  0
 12 13  1  0
 13 14  2  0
 13 15  1  0
 15 16  2  0
 16 17  1  0
 17 18  2  0
 18 19  1  0
 19 20  1  0
 20 21  2  0
 21 22  1  0
 22 23  2  0
 21 24  1  0
 24 25  1  0
 25 26  1  0
 26 27  1  0
 12 28  1  0
 10  5  1  0
 23 15  1  0
 28  7  1  0
 22 18  1  0
 27 20  1  0
  1 29  1  0
  1 30  1  0
  1 31  1  0
  3 32  1  0
  3 33  1  0
  4 34  1  0
  4 35  1  0
  6 36  1  0
  6 37  1  0
  7 38  1  0
  8 39  1  0
  8 40  1  0
  9 41  1  0
  9 42  1  0
 10 43  1  0
 11 44  1  0
 11 45  1  0
 16 46  1  0
 17 47  1  0
 19 48  1  0
 23 49  1  0
 24 50  1  0
 24 51  1  0
 25 52  1  0
 25 53  1  0
 26 54  1  0
 26 55  1  0
 27 56  1  0
 27 57  1  0
 28 58  1  0
 28 59  1  0
M  END
>  <Energy>  (555) 
828.37194090763171

>  <compound_id>  (555) 
60060

>  <target_id>  (555) 
1

>  <reference_id>  (555) 
7

>  <inspiration_ids>  (555) 
[7, 40]

>  <energy_score>  (555) 
684.9770969802822

>  <distance_score>  (555) 
5.1840811405984315

>  <path>  (555) 
/opt/xchem-fragalysis-2/maxwin/BulkDock/SCRATCH/511025/C60060-P7/C60060-P7.minimised.mol

>  <scratch_subdir>  (555) 
/opt/xchem-fragalysis-2/maxwin/BulkDock/SCRATCH/511025/C60060-P7

>  <fragmenstein_runtime>  (555) 
12.4962158203125

>  <fragmenstein_outcome>  (555) 
too moved

>  <fragmenstein_mode>  (555) 
expansion

>  <fragmenstein_error>  (555) 


$$$$
C60060-P40
     RDKit          3D

 59 63  0  0  0  0  0  0  0  0999 V2000
  -11.6990   -3.8390   38.7569 C   0  0  0  0  0  0  0  0  0  0  0  0
  -10.6013   -3.3567   37.9856 O   0  0  0  0  0  0  0  0  0  0  0  0
  -10.8539   -2.0588   37.4697 C   0  0  0  0  0  0  0  0  0  0  0  0
   -9.8499   -1.6659   36.3573 C   0  0  0  0  0  0  0  0  0  0  0  0
   -8.4175   -1.5086   36.7060 N   0  0  0  0  0  0  0  0  0  0  0  0
   -8.1806   -0.7134   37.9184 C   0  0  0  0  0  0  0  0  0  0  0  0
   -6.9946    0.2351   37.6316 C   0  0  0  0  0  0  0  0  0  0  0  0
   -7.4776    1.3149   36.6583 C   0  0  0  0  0  0  0  0  0  0  0  0
   -7.9528    0.5817   35.4101 C   0  0  0  0  0  0  0  0  0  0  0  0
   -7.5966   -0.9125   35.5948 C   0  0  0  0  0  0  0  0  0  0  0  0
   -5.7755   -0.9170   36.1496 C   0  0  0  0  0  0  0  0  0  0  0  0
   -4.9080   -1.0740   35.1821 N   0  0  0  0  0  0  0  0  0  0  0  0
   -3.5254   -0.4117   34.7818 C   0  0  0  0  0  0  0  0  0  0  0  0
   -2.8406    0.3503   35.3170 O   0  0  0  0  0  0  0  0  0  0  0  0
   -3.0163   -0.9532   33.4772 C   0  0  0  0  0  0  0  0  0  0  0  0
   -3.1393   -0.1686   32.3322 C   0  0  0  0  0  0  0  0  0  0  0  0
   -2.5158   -0.5332   31.1277 C   0  0  0  0  0  0  0  0  0  0  0  0
   -1.7788   -1.7229   31.0923 C   0  0  0  0  0  0  0  0  0  0  0  0
   -1.1052   -2.3152   30.0437 N   0  0  0  0  0  0  0  0  0  0  0  0
   -0.4711   -3.4385   30.4910 C   0  0  0  0  0  0  0  0  0  0  0  0
   -0.7735   -3.6121   31.8270 C   0  0  0  0  0  0  0  0  0  0  0  0
   -1.6056   -2.5232   32.2244 C   0  0  0  0  0  0  0  0  0  0  0  0
   -2.2129   -2.1093   33.4392 C   0  0  0  0  0  0  0  0  0  0  0  0
   -0.2700   -4.7706   32.6189 C   0  0  0  0  0  0  0  0  0  0  0  0
    0.8602   -5.5083   31.8712 C   0  0  0  0  0  0  0  0  0  0  0  0
    0.5775   -5.6576   30.3614 C   0  0  0  0  0  0  0  0  0  0  0  0
    0.4172   -4.2930   29.6714 C   0  0  0  0  0  0  0  0  0  0  0  0
   -5.7283   -0.8322   36.9568 C   0  0  0  0  0  0  0  0  0  0  0  0
  -11.4016   -4.7758   39.2345 H   0  0  0  0  0  0  0  0  0  0  0  0
  -12.5609   -4.0279   38.1100 H   0  0  0  0  0  0  0  0  0  0  0  0
  -11.9638   -3.1216   39.5399 H   0  0  0  0  0  0  0  0  0  0  0  0
  -10.8404   -1.3367   38.2922 H   0  0  0  0  0  0  0  0  0  0  0  0
  -11.8578   -2.0332   37.0377 H   0  0  0  0  0  0  0  0  0  0  0  0
   -9.9056   -2.4269   35.5731 H   0  0  0  0  0  0  0  0  0  0  0  0
  -10.2393   -0.7365   35.9317 H   0  0  0  0  0  0  0  0  0  0  0  0
   -7.9356   -1.3892   38.7448 H   0  0  0  0  0  0  0  0  0  0  0  0
   -9.0448   -0.1108   38.2191 H   0  0  0  0  0  0  0  0  0  0  0  0
   -6.6072    0.6652   38.5620 H   0  0  0  0  0  0  0  0  0  0  0  0
   -8.2924    1.9047   37.0928 H   0  0  0  0  0  0  0  0  0  0  0  0
   -6.6669    2.0125   36.4200 H   0  0  0  0  0  0  0  0  0  0  0  0
   -7.4128    0.9581   34.5451 H   0  0  0  0  0  0  0  0  0  0  0  0
   -9.0118    0.7701   35.2217 H   0  0  0  0  0  0  0  0  0  0  0  0
   -7.6656   -1.4792   34.6574 H   0  0  0  0  0  0  0  0  0  0  0  0
   -5.9689   -2.0768   35.7572 H   0  0  0  0  0  0  0  0  0  0  0  0
   -5.7694    0.1532   35.5256 H   0  0  0  0  0  0  0  0  0  0  0  0
   -3.7040    0.7602   32.3811 H   0  0  0  0  0  0  0  0  0  0  0  0
   -2.6135    0.0953   30.2480 H   0  0  0  0  0  0  0  0  0  0  0  0
   -1.0841   -1.9553   29.0968 H   0  0  0  0  0  0  0  0  0  0  0  0
   -2.0410   -2.6672   34.3548 H   0  0  0  0  0  0  0  0  0  0  0  0
   -1.0983   -5.4678   32.7903 H   0  0  0  0  0  0  0  0  0  0  0  0
    0.0910   -4.4421   33.5997 H   0  0  0  0  0  0  0  0  0  0  0  0
    1.8000   -4.9560   32.0000 H   0  0  0  0  0  0  0  0  0  0  0  0
    1.0052   -6.4945   32.3252 H   0  0  0  0  0  0  0  0  0  0  0  0
   -0.3359   -6.2515   30.2283 H   0  0  0  0  0  0  0  0  0  0  0  0
    1.3891   -6.2065   29.8741 H   0  0  0  0  0  0  0  0  0  0  0  0
    1.3979   -3.8110   29.5808 H   0  0  0  0  0  0  0  0  0  0  0  0
    0.0187   -4.4198   28.6622 H   0  0  0  0  0  0  0  0  0  0  0  0
   -4.7922   -0.2689   37.5168 H   0  0  0  0  0  0  0  0  0  0  0  0
   -5.6221   -1.8044   37.6940 H   0  0  0  0  0  0  0  0  0  0  0  0
  1  2  1  0
  2  3  1  0
  3  4  1  0
  4  5  1  0
  5  6  1  0
  6  7  1  0
  7  8  1  0
  8  9  1  0
  9 10  1  0
 10 11  1  0
 11 12  1  0
 12 13  1  0
 13 14  2  0
 13 15  1  0
 15 16  2  0
 16 17  1  0
 17 18  2  0
 18 19  1  0
 19 20  1  0
 20 21  2  0
 21 22  1  0
 22 23  2  0
 21 24  1  0
 24 25  1  0
 25 26  1  0
 26 27  1  0
 12 28  1  0
 10  5  1  0
 23 15  1  0
 28  7  1  0
 22 18  1  0
 27 20  1  0
  1 29  1  0
  1 30  1  0
  1 31  1  0
  3 32  1  0
  3 33  1  0
  4 34  1  0
  4 35  1  0
  6 36  1  0
  6 37  1  0
  7 38  1  0
  8 39  1  0
  8 40  1  0
  9 41  1  0
  9 42  1  0
 10 43  1  0
 11 44  1  0
 11 45  1  0
 16 46  1  0
 17 47  1  0
 19 48  1  0
 23 49  1  0
 24 50  1  0
 24 51  1  0
 25 52  1  0
 25 53  1  0
 26 54  1  0
 26 55  1  0
 27 56  1  0
 27 57  1  0
 28 58  1  0
 28 59  1  0
M  END
>  <Energy>  (556) 
870.3381931054596

>  <compound_id>  (556) 
60060

>  <target_id>  (556) 
1

>  <reference_id>  (556) 
40

>  <inspiration_ids>  (556) 
[7, 40]

>  <energy_score>  (556) 
726.9433491781119

>  <distance_score>  (556) 
5.111070175471498

>  <path>  (556) 
/opt/xchem-fragalysis-2/maxwin/BulkDock/SCRATCH/511025/C60060-P40/C60060-P40.minimised.mol

>  <scratch_subdir>  (556) 
/opt/xchem-fragalysis-2/maxwin/BulkDock/SCRATCH/511025/C60060-P40

>  <fragmenstein_runtime>  (556) 
11.417041778564453

>  <fragmenstein_outcome>  (556) 
too moved

>  <fragmenstein_mode>  (556) 
expansion

>  <fragmenstein_error>  (556) 


$$$$
C57129-P13
     RDKit          3D

 45 47  0  0  0  0  0  0  0  0999 V2000
   -0.0927   -7.0123   37.1351 C   0  0  0  0  0  0  0  0  0  0  0  0
   -0.9967   -7.2733   35.9095 C   0  0  0  0  0  0  0  0  0  0  0  0
   -2.3651   -7.9624   36.4865 C   0  0  0  0  0  0  0  0  0  0  0  0
   -2.9716   -8.9857   35.5076 C   0  0  0  0  0  0  0  0  0  0  0  0
   -2.3302   -9.0588   34.4924 O   0  0  0  0  0  0  0  0  0  0  0  0
   -4.2512   -9.6264   35.8867 N   0  0  0  0  0  0  0  0  0  0  0  0
   -5.1223  -10.4161   35.1394 N   0  0  0  0  0  0  0  0  0  0  0  0
   -5.5563  -10.3022   33.8225 C   0  0  0  0  0  0  0  0  0  0  0  0
   -5.3264   -9.4406   33.0853 O   0  0  0  0  0  0  0  0  0  0  0  0
   -6.4871  -11.6399   32.9402 C   0  0  0  0  0  0  0  0  0  0  0  0
   -6.6977  -13.0446   32.7818 C   0  0  0  0  0  0  0  0  0  0  0  0
   -6.5235  -14.2286   31.6315 C   0  0  0  0  0  0  0  0  0  0  0  0
   -6.4576  -13.4732   30.5354 C   0  0  0  0  0  0  0  0  0  0  0  0
   -6.7646  -11.8598   31.5291 C   0  0  0  0  0  0  0  0  0  0  0  0
   -0.9857   -6.0342   34.9485 C   0  0  0  0  0  0  0  0  0  0  0  0
   -0.8259   -4.7045   35.4313 C   0  0  0  0  0  0  0  0  0  0  0  0
   -0.6696   -3.5883   34.5741 C   0  0  0  0  0  0  0  0  0  0  0  0
   -0.6830   -3.7970   33.2155 C   0  0  0  0  0  0  0  0  0  0  0  0
   -0.8312   -5.0646   32.7098 C   0  0  0  0  0  0  0  0  0  0  0  0
   -0.9803   -6.1882   33.5371 C   0  0  0  0  0  0  0  0  0  0  0  0
   -0.8325   -5.0560   31.3444 O   0  0  0  0  0  0  0  0  0  0  0  0
   -0.6606   -3.6457   31.0612 C   0  0  0  0  0  0  0  0  0  0  0  0
   -0.5757   -2.8399   32.2528 O   0  0  0  0  0  0  0  0  0  0  0  0
    0.1070   -7.9474   37.6707 H   0  0  0  0  0  0  0  0  0  0  0  0
   -0.5646   -6.3231   37.8434 H   0  0  0  0  0  0  0  0  0  0  0  0
    0.8765   -6.5961   36.8383 H   0  0  0  0  0  0  0  0  0  0  0  0
   -0.4518   -8.0520   35.3565 H   0  0  0  0  0  0  0  0  0  0  0  0
   -2.1477   -8.5073   37.4119 H   0  0  0  0  0  0  0  0  0  0  0  0
   -3.1019   -7.1806   36.6923 H   0  0  0  0  0  0  0  0  0  0  0  0
   -4.5440   -9.2749   36.7883 H   0  0  0  0  0  0  0  0  0  0  0  0
   -5.5545  -11.2254   35.5402 H   0  0  0  0  0  0  0  0  0  0  0  0
   -7.4439  -11.4626   33.4283 H   0  0  0  0  0  0  0  0  0  0  0  0
   -5.9665  -13.4531   33.4629 H   0  0  0  0  0  0  0  0  0  0  0  0
   -7.7650  -13.1555   33.0848 H   0  0  0  0  0  0  0  0  0  0  0  0
   -7.5336  -14.6179   31.6253 H   0  0  0  0  0  0  0  0  0  0  0  0
   -5.7417  -14.9846   31.6867 H   0  0  0  0  0  0  0  0  0  0  0  0
   -5.6199  -13.2753   29.9312 H   0  0  0  0  0  0  0  0  0  0  0  0
   -7.0963  -13.8425   29.7383 H   0  0  0  0  0  0  0  0  0  0  0  0
   -6.1926  -11.1254   30.8769 H   0  0  0  0  0  0  0  0  0  0  0  0
   -7.7990  -11.4866   31.5888 H   0  0  0  0  0  0  0  0  0  0  0  0
   -0.8217   -4.5094   36.5013 H   0  0  0  0  0  0  0  0  0  0  0  0
   -0.5628   -2.5897   34.9817 H   0  0  0  0  0  0  0  0  0  0  0  0
   -1.0857   -7.1740   33.0911 H   0  0  0  0  0  0  0  0  0  0  0  0
    0.2589   -3.5162   30.4792 H   0  0  0  0  0  0  0  0  0  0  0  0
   -1.5108   -3.3004   30.4625 H   0  0  0  0  0  0  0  0  0  0  0  0
  1  2  1  0
  2  3  1  0
  3  4  1  0
  4  5  2  0
  4  6  1  0
  6  7  1  0
  7  8  1  0
  8  9  2  0
  8 10  1  0
 10 11  1  0
 11 12  1  0
 12 13  1  0
 13 14  1  0
  2 15  1  0
 15 16  2  0
 16 17  1  0
 17 18  2  0
 18 19  1  0
 19 20  2  0
 19 21  1  0
 21 22  1  0
 22 23  1  0
 14 10  1  0
 20 15  1  0
 23 18  1  0
  1 24  1  0
  1 25  1  0
  1 26  1  0
  2 27  1  0
  3 28  1  0
  3 29  1  0
  6 30  1  0
  7 31  1  0
 10 32  1  0
 11 33  1  0
 11 34  1  0
 12 35  1  0
 12 36  1  0
 13 37  1  0
 13 38  1  0
 14 39  1  0
 14 40  1  0
 16 41  1  0
 17 42  1  0
 20 43  1  0
 22 44  1  0
 22 45  1  0
M  END
>  <Energy>  (557) 
313.79575281926111

>  <compound_id>  (557) 
57129

>  <target_id>  (557) 
1

>  <reference_id>  (557) 
13

>  <inspiration_ids>  (557) 
[13, 3]

>  <energy_score>  (557) 
223.16557161139303

>  <distance_score>  (557) 
8.94496702150546

>  <path>  (557) 
/opt/xchem-fragalysis-2/maxwin/BulkDock/SCRATCH/511025/C57129-P13/C57129-P13.minimised.mol

>  <scratch_subdir>  (557) 
/opt/xchem-fragalysis-2/maxwin/BulkDock/SCRATCH/511025/C57129-P13

>  <fragmenstein_runtime>  (557) 
46.39755296707153

>  <fragmenstein_outcome>  (557) 
too moved

>  <fragmenstein_mode>  (557) 
expansion

>  <fragmenstein_error>  (557) 


$$$$
C57129-P3
     RDKit          3D

 45 47  0  0  0  0  0  0  0  0999 V2000
   -3.4598   -6.4023   31.6163 C   0  0  0  0  0  0  0  0  0  0  0  0
   -4.7498   -5.4320   31.6796 C   0  0  0  0  0  0  0  0  0  0  0  0
   -6.1167   -5.4523   33.0495 C   0  0  0  0  0  0  0  0  0  0  0  0
   -7.5120   -6.7635   33.4005 C   0  0  0  0  0  0  0  0  0  0  0  0
   -8.2750   -6.8063   32.4721 O   0  0  0  0  0  0  0  0  0  0  0  0
   -7.6196   -7.9321   34.8718 N   0  0  0  0  0  0  0  0  0  0  0  0
   -8.7304   -9.4125   35.1938 N   0  0  0  0  0  0  0  0  0  0  0  0
   -8.4657  -11.2204   34.6841 C   0  0  0  0  0  0  0  0  0  0  0  0
   -7.5803  -11.6667   33.9787 O   0  0  0  0  0  0  0  0  0  0  0  0
   -9.3604  -12.4701   35.2908 C   0  0  0  0  0  0  0  0  0  0  0  0
  -10.0064  -13.4407   34.2949 C   0  0  0  0  0  0  0  0  0  0  0  0
  -11.1753  -14.0690   35.0453 C   0  0  0  0  0  0  0  0  0  0  0  0
  -11.0167  -13.7293   36.5340 C   0  0  0  0  0  0  0  0  0  0  0  0
   -9.8118  -12.7863   36.7020 C   0  0  0  0  0  0  0  0  0  0  0  0
   -3.8084   -4.3044   30.8861 C   0  0  0  0  0  0  0  0  0  0  0  0
   -3.0137   -3.3055   31.4658 C   0  0  0  0  0  0  0  0  0  0  0  0
   -2.1948   -2.4088   30.7352 C   0  0  0  0  0  0  0  0  0  0  0  0
   -2.0458   -2.6048   29.3892 C   0  0  0  0  0  0  0  0  0  0  0  0
   -2.6150   -3.6903   28.7928 C   0  0  0  0  0  0  0  0  0  0  0  0
   -3.4325   -4.5650   29.5065 C   0  0  0  0  0  0  0  0  0  0  0  0
   -2.3396   -3.7500   27.4626 O   0  0  0  0  0  0  0  0  0  0  0  0
   -1.4989   -2.5796   27.3081 C   0  0  0  0  0  0  0  0  0  0  0  0
   -1.3351   -1.8314   28.5314 O   0  0  0  0  0  0  0  0  0  0  0  0
   -3.1201   -6.6544   30.5974 H   0  0  0  0  0  0  0  0  0  0  0  0
   -3.5127   -7.2962   32.2481 H   0  0  0  0  0  0  0  0  0  0  0  0
   -2.4613   -5.9407   31.6304 H   0  0  0  0  0  0  0  0  0  0  0  0
   -5.4309   -5.7178   30.8644 H   0  0  0  0  0  0  0  0  0  0  0  0
   -5.6726   -5.2617   34.0182 H   0  0  0  0  0  0  0  0  0  0  0  0
   -6.7125   -4.5668   32.7896 H   0  0  0  0  0  0  0  0  0  0  0  0
   -6.9375   -7.6613   35.5647 H   0  0  0  0  0  0  0  0  0  0  0  0
   -9.4994   -9.3403   35.8556 H   0  0  0  0  0  0  0  0  0  0  0  0
   -8.4175  -13.0500   35.4295 H   0  0  0  0  0  0  0  0  0  0  0  0
  -10.3110  -12.9983   33.3437 H   0  0  0  0  0  0  0  0  0  0  0  0
   -9.2499  -14.1298   33.9430 H   0  0  0  0  0  0  0  0  0  0  0  0
  -11.2621  -15.1439   34.8725 H   0  0  0  0  0  0  0  0  0  0  0  0
  -12.1183  -13.6401   34.6849 H   0  0  0  0  0  0  0  0  0  0  0  0
  -11.9456  -13.2935   36.9121 H   0  0  0  0  0  0  0  0  0  0  0  0
  -10.8839  -14.6272   37.1394 H   0  0  0  0  0  0  0  0  0  0  0  0
   -9.9331  -11.9058   37.3320 H   0  0  0  0  0  0  0  0  0  0  0  0
   -9.0272  -13.3054   37.2668 H   0  0  0  0  0  0  0  0  0  0  0  0
   -2.9284   -3.2798   32.5376 H   0  0  0  0  0  0  0  0  0  0  0  0
   -1.6568   -1.6057   31.2208 H   0  0  0  0  0  0  0  0  0  0  0  0
   -3.8806   -5.4009   28.9684 H   0  0  0  0  0  0  0  0  0  0  0  0
   -0.5162   -2.8910   26.9390 H   0  0  0  0  0  0  0  0  0  0  0  0
   -1.9563   -1.9219   26.5603 H   0  0  0  0  0  0  0  0  0  0  0  0
  1  2  1  0
  2  3  1  0
  3  4  1  0
  4  5  2  0
  4  6  1  0
  6  7  1  0
  7  8  1  0
  8  9  2  0
  8 10  1  0
 10 11  1  0
 11 12  1  0
 12 13  1  0
 13 14  1  0
  2 15  1  0
 15 16  2  0
 16 17  1  0
 17 18  2  0
 18 19  1  0
 19 20  2  0
 19 21  1  0
 21 22  1  0
 22 23  1  0
 14 10  1  0
 20 15  1  0
 23 18  1  0
  1 24  1  0
  1 25  1  0
  1 26  1  0
  2 27  1  0
  3 28  1  0
  3 29  1  0
  6 30  1  0
  7 31  1  0
 10 32  1  0
 11 33  1  0
 11 34  1  0
 12 35  1  0
 12 36  1  0
 13 37  1  0
 13 38  1  0
 14 39  1  0
 14 40  1  0
 16 41  1  0
 17 42  1  0
 20 43  1  0
 22 44  1  0
 22 45  1  0
M  END
>  <Energy>  (558) 
489.81834621855029

>  <compound_id>  (558) 
57129

>  <target_id>  (558) 
1

>  <reference_id>  (558) 
3

>  <inspiration_ids>  (558) 
[13, 3]

>  <energy_score>  (558) 
399.18816501068045

>  <distance_score>  (558) 
7.834597458232892

>  <path>  (558) 
/opt/xchem-fragalysis-2/maxwin/BulkDock/SCRATCH/511025/C57129-P3/C57129-P3.minimised.mol

>  <scratch_subdir>  (558) 
/opt/xchem-fragalysis-2/maxwin/BulkDock/SCRATCH/511025/C57129-P3

>  <fragmenstein_runtime>  (558) 
30.844685792922974

>  <fragmenstein_outcome>  (558) 
too moved

>  <fragmenstein_mode>  (558) 
expansion

>  <fragmenstein_error>  (558) 


$$$$
C57130-P13
     RDKit          3D

 42 44  0  0  0  0  0  0  0  0999 V2000
    2.1945   -4.4626   29.4445 C   0  0  0  0  0  0  0  0  0  0  0  0
    1.0780   -3.9039   30.3433 C   0  0  0  0  0  0  0  0  0  0  0  0
   -0.0333   -4.9642   30.5343 C   0  0  0  0  0  0  0  0  0  0  0  0
    0.4244   -6.2792   31.2244 C   0  0  0  0  0  0  0  0  0  0  0  0
    1.1748   -6.2300   32.1565 O   0  0  0  0  0  0  0  0  0  0  0  0
   -0.2187   -7.4148   30.5839 N   0  0  0  0  0  0  0  0  0  0  0  0
   -0.0848   -8.7595   30.7994 N   0  0  0  0  0  0  0  0  0  0  0  0
   -0.0108   -9.8614   29.8724 C   0  0  0  0  0  0  0  0  0  0  0  0
    0.0313   -9.8721   28.6742 O   0  0  0  0  0  0  0  0  0  0  0  0
   -0.0303  -11.2646   30.5913 C   0  0  0  0  0  0  0  0  0  0  0  0
   -1.4089  -11.8295   31.0386 C   0  0  0  0  0  0  0  0  0  0  0  0
   -0.9376  -13.2397   30.6269 C   0  0  0  0  0  0  0  0  0  0  0  0
    0.0244  -12.5415   29.6572 C   0  0  0  0  0  0  0  0  0  0  0  0
    0.6207   -2.5488   29.7758 C   0  0  0  0  0  0  0  0  0  0  0  0
    1.5114   -1.4450   29.8709 C   0  0  0  0  0  0  0  0  0  0  0  0
    1.2086   -0.1934   29.3154 C   0  0  0  0  0  0  0  0  0  0  0  0
    0.0004   -0.0517   28.6759 C   0  0  0  0  0  0  0  0  0  0  0  0
   -0.8890   -1.0938   28.5960 C   0  0  0  0  0  0  0  0  0  0  0  0
   -0.6090   -2.3461   29.1233 C   0  0  0  0  0  0  0  0  0  0  0  0
   -2.0351   -0.7376   27.9551 O   0  0  0  0  0  0  0  0  0  0  0  0
   -1.7196    0.6108   27.5524 C   0  0  0  0  0  0  0  0  0  0  0  0
   -0.4548    1.0771   28.0700 O   0  0  0  0  0  0  0  0  0  0  0  0
    3.0527   -3.7829   29.4034 H   0  0  0  0  0  0  0  0  0  0  0  0
    2.5672   -5.4234   29.8126 H   0  0  0  0  0  0  0  0  0  0  0  0
    1.8440   -4.6043   28.4170 H   0  0  0  0  0  0  0  0  0  0  0  0
    1.5090   -3.7052   31.3342 H   0  0  0  0  0  0  0  0  0  0  0  0
   -0.4726   -5.1816   29.5610 H   0  0  0  0  0  0  0  0  0  0  0  0
   -0.8328   -4.5520   31.1631 H   0  0  0  0  0  0  0  0  0  0  0  0
   -0.8584   -7.0759   29.8692 H   0  0  0  0  0  0  0  0  0  0  0  0
   -0.0191   -9.1201   31.7502 H   0  0  0  0  0  0  0  0  0  0  0  0
    0.7215  -11.3243   31.3911 H   0  0  0  0  0  0  0  0  0  0  0  0
   -1.6441  -11.6986   32.0978 H   0  0  0  0  0  0  0  0  0  0  0  0
   -2.2394  -11.4625   30.4343 H   0  0  0  0  0  0  0  0  0  0  0  0
   -0.4337  -13.7866   31.4315 H   0  0  0  0  0  0  0  0  0  0  0  0
   -1.6786  -13.8908   30.1586 H   0  0  0  0  0  0  0  0  0  0  0  0
   -0.3996  -12.3994   28.6560 H   0  0  0  0  0  0  0  0  0  0  0  0
    1.0094  -13.0059   29.5585 H   0  0  0  0  0  0  0  0  0  0  0  0
    2.4712   -1.5673   30.3716 H   0  0  0  0  0  0  0  0  0  0  0  0
    1.9062    0.6337   29.3785 H   0  0  0  0  0  0  0  0  0  0  0  0
   -1.3398   -3.1338   28.9899 H   0  0  0  0  0  0  0  0  0  0  0  0
   -2.5040    1.2837   27.9132 H   0  0  0  0  0  0  0  0  0  0  0  0
   -1.6976    0.6587   26.4585 H   0  0  0  0  0  0  0  0  0  0  0  0
  1  2  1  0
  2  3  1  0
  3  4  1  0
  4  5  2  0
  4  6  1  0
  6  7  1  0
  7  8  1  0
  8  9  2  0
  8 10  1  0
 10 11  1  0
 11 12  1  0
 12 13  1  0
  2 14  1  0
 14 15  2  0
 15 16  1  0
 16 17  2  0
 17 18  1  0
 18 19  2  0
 18 20  1  0
 20 21  1  0
 21 22  1  0
 13 10  1  0
 19 14  1  0
 22 17  1  0
  1 23  1  0
  1 24  1  0
  1 25  1  0
  2 26  1  0
  3 27  1  0
  3 28  1  0
  6 29  1  0
  7 30  1  0
 10 31  1  0
 11 32  1  0
 11 33  1  0
 12 34  1  0
 12 35  1  0
 13 36  1  0
 13 37  1  0
 15 38  1  0
 16 39  1  0
 19 40  1  0
 21 41  1  0
 21 42  1  0
M  END
>  <Energy>  (559) 
77.307880726258205

>  <compound_id>  (559) 
57130

>  <target_id>  (559) 
1

>  <reference_id>  (559) 
13

>  <inspiration_ids>  (559) 
[13, 3]

>  <energy_score>  (559) 
-8.741552133806863

>  <distance_score>  (559) 
8.530187386281717

>  <path>  (559) 
/opt/xchem-fragalysis-2/maxwin/BulkDock/SCRATCH/511025/C57130-P13/C57130-P13.minimised.mol

>  <scratch_subdir>  (559) 
/opt/xchem-fragalysis-2/maxwin/BulkDock/SCRATCH/511025/C57130-P13

>  <fragmenstein_runtime>  (559) 
26.191656351089478

>  <fragmenstein_outcome>  (559) 
too moved

>  <fragmenstein_mode>  (559) 
expansion

>  <fragmenstein_error>  (559) 


$$$$
C57130-P3
     RDKit          3D

 42 44  0  0  0  0  0  0  0  0999 V2000
   -3.1875   -5.9398   30.4436 C   0  0  0  0  0  0  0  0  0  0  0  0
   -4.0107   -5.8253   29.0793 C   0  0  0  0  0  0  0  0  0  0  0  0
   -5.6968   -6.6910   28.7268 C   0  0  0  0  0  0  0  0  0  0  0  0
   -5.9535   -8.6481   28.4921 C   0  0  0  0  0  0  0  0  0  0  0  0
   -5.0222   -9.1562   27.8984 O   0  0  0  0  0  0  0  0  0  0  0  0
   -7.1775   -9.3105   29.2173 N   0  0  0  0  0  0  0  0  0  0  0  0
   -7.5080  -10.9323   29.5755 N   0  0  0  0  0  0  0  0  0  0  0  0
   -8.7098  -11.5743   30.3050 C   0  0  0  0  0  0  0  0  0  0  0  0
   -9.7561  -11.0885   30.6587 O   0  0  0  0  0  0  0  0  0  0  0  0
   -8.5767  -13.0163   30.8875 C   0  0  0  0  0  0  0  0  0  0  0  0
   -7.3460  -13.8482   31.8604 C   0  0  0  0  0  0  0  0  0  0  0  0
   -8.3751  -14.4513   32.8311 C   0  0  0  0  0  0  0  0  0  0  0  0
   -9.2141  -13.2165   32.5489 C   0  0  0  0  0  0  0  0  0  0  0  0
   -3.1216   -4.6453   28.3510 C   0  0  0  0  0  0  0  0  0  0  0  0
   -2.2610   -4.7577   27.2465 C   0  0  0  0  0  0  0  0  0  0  0  0
   -1.6104   -3.6490   26.6395 C   0  0  0  0  0  0  0  0  0  0  0  0
   -1.6321   -2.4330   27.2619 C   0  0  0  0  0  0  0  0  0  0  0  0
   -2.2286   -2.3274   28.4742 C   0  0  0  0  0  0  0  0  0  0  0  0
   -2.9284   -3.3937   29.0302 C   0  0  0  0  0  0  0  0  0  0  0  0
   -2.0617   -1.0969   29.0268 O   0  0  0  0  0  0  0  0  0  0  0  0
   -1.3447   -0.4226   27.9708 C   0  0  0  0  0  0  0  0  0  0  0  0
   -1.0514   -1.2798   26.8498 O   0  0  0  0  0  0  0  0  0  0  0  0
   -3.8566   -5.9491   31.3156 H   0  0  0  0  0  0  0  0  0  0  0  0
   -2.4890   -6.7694   30.4752 H   0  0  0  0  0  0  0  0  0  0  0  0
   -2.5732   -5.0691   30.6707 H   0  0  0  0  0  0  0  0  0  0  0  0
   -4.6641   -5.1500   29.5907 H   0  0  0  0  0  0  0  0  0  0  0  0
   -6.0950   -6.5578   29.7380 H   0  0  0  0  0  0  0  0  0  0  0  0
   -6.1337   -6.0078   28.0063 H   0  0  0  0  0  0  0  0  0  0  0  0
   -7.7969   -8.6091   29.5283 H   0  0  0  0  0  0  0  0  0  0  0  0
   -6.8231  -11.6584   29.3447 H   0  0  0  0  0  0  0  0  0  0  0  0
   -7.5995  -12.4877   31.0125 H   0  0  0  0  0  0  0  0  0  0  0  0
   -6.6551  -13.1853   32.4226 H   0  0  0  0  0  0  0  0  0  0  0  0
   -6.6737  -14.5323   31.3405 H   0  0  0  0  0  0  0  0  0  0  0  0
   -8.0140  -14.5326   33.8637 H   0  0  0  0  0  0  0  0  0  0  0  0
   -8.8342  -15.4180   32.6116 H   0  0  0  0  0  0  0  0  0  0  0  0
  -10.2785  -13.2306   32.7535 H   0  0  0  0  0  0  0  0  0  0  0  0
   -8.8289  -12.5267   33.3145 H   0  0  0  0  0  0  0  0  0  0  0  0
   -1.9420   -5.7119   26.8384 H   0  0  0  0  0  0  0  0  0  0  0  0
   -1.0394   -3.7774   25.7269 H   0  0  0  0  0  0  0  0  0  0  0  0
   -3.3282   -3.2205   30.0249 H   0  0  0  0  0  0  0  0  0  0  0  0
   -0.4016   -0.0396   28.3772 H   0  0  0  0  0  0  0  0  0  0  0  0
   -1.9479    0.4231   27.6206 H   0  0  0  0  0  0  0  0  0  0  0  0
  1  2  1  0
  2  3  1  0
  3  4  1  0
  4  5  2  0
  4  6  1  0
  6  7  1  0
  7  8  1  0
  8  9  2  0
  8 10  1  0
 10 11  1  0
 11 12  1  0
 12 13  1  0
  2 14  1  0
 14 15  2  0
 15 16  1  0
 16 17  2  0
 17 18  1  0
 18 19  2  0
 18 20  1  0
 20 21  1  0
 21 22  1  0
 13 10  1  0
 19 14  1  0
 22 17  1  0
  1 23  1  0
  1 24  1  0
  1 25  1  0
  2 26  1  0
  3 27  1  0
  3 28  1  0
  6 29  1  0
  7 30  1  0
 10 31  1  0
 11 32  1  0
 11 33  1  0
 12 34  1  0
 12 35  1  0
 13 36  1  0
 13 37  1  0
 15 38  1  0
 16 39  1  0
 19 40  1  0
 21 41  1  0
 21 42  1  0
M  END
>  <Energy>  (560) 
397.31252452781172

>  <compound_id>  (560) 
57130

>  <target_id>  (560) 
1

>  <reference_id>  (560) 
3

>  <inspiration_ids>  (560) 
[13, 3]

>  <energy_score>  (560) 
311.2630916677522

>  <distance_score>  (560) 
7.91344805183893

>  <path>  (560) 
/opt/xchem-fragalysis-2/maxwin/BulkDock/SCRATCH/511025/C57130-P3/C57130-P3.minimised.mol

>  <scratch_subdir>  (560) 
/opt/xchem-fragalysis-2/maxwin/BulkDock/SCRATCH/511025/C57130-P3

>  <fragmenstein_runtime>  (560) 
16.589892864227295

>  <fragmenstein_outcome>  (560) 
too moved

>  <fragmenstein_mode>  (560) 
expansion

>  <fragmenstein_error>  (560) 


$$$$
C57131-P13
     RDKit          3D

 58 61  0  0  0  0  0  0  0  0999 V2000
   -9.5821  -23.9186   27.8994 C   0  0  0  0  0  0  0  0  0  0  0  0
  -10.6787  -23.0128   27.5846 C   0  0  0  0  0  0  0  0  0  0  0  0
  -12.0116  -23.6626   27.0677 C   0  0  0  0  0  0  0  0  0  0  0  0
  -10.4940  -21.2043   27.9462 C   0  0  0  0  0  0  0  0  0  0  0  0
  -12.0962  -21.3653   28.6748 C   0  0  0  0  0  0  0  0  0  0  0  0
  -11.2911  -21.1023   26.5860 O   0  0  0  0  0  0  0  0  0  0  0  0
   -8.9646  -19.7322   28.3562 C   0  0  0  0  0  0  0  0  0  0  0  0
   -8.4849  -17.9058   28.5846 N   0  0  0  0  0  0  0  0  0  0  0  0
   -8.1070  -16.1976   28.0354 C   0  0  0  0  0  0  0  0  0  0  0  0
   -7.2332  -14.4744   28.6843 C   0  0  0  0  0  0  0  0  0  0  0  0
   -6.7835  -14.0170   30.3923 C   0  0  0  0  0  0  0  0  0  0  0  0
   -6.7052  -12.5817   31.4532 C   0  0  0  0  0  0  0  0  0  0  0  0
   -6.0837  -11.1610   30.6213 C   0  0  0  0  0  0  0  0  0  0  0  0
   -5.7381  -11.9520   29.0337 C   0  0  0  0  0  0  0  0  0  0  0  0
   -6.8807  -13.2068   28.1506 C   0  0  0  0  0  0  0  0  0  0  0  0
   -6.4850  -10.7361   28.8550 O   0  0  0  0  0  0  0  0  0  0  0  0
   -6.9023   -9.5069   29.0991 C   0  0  0  0  0  0  0  0  0  0  0  0
   -7.1079  -10.0741   30.2669 O   0  0  0  0  0  0  0  0  0  0  0  0
   -8.9627  -16.2486   26.9897 N   0  0  0  0  0  0  0  0  0  0  0  0
   -9.9326  -17.3976   27.1067 N   0  0  0  0  0  0  0  0  0  0  0  0
   -9.7885  -18.4453   28.2708 C   0  0  0  0  0  0  0  0  0  0  0  0
  -10.8242  -19.4480   29.7058 N   0  0  0  0  0  0  0  0  0  0  0  0
  -10.6480  -21.1937   30.5443 C   0  0  0  0  0  0  0  0  0  0  0  0
   -9.8312  -21.6706   32.3773 C   0  0  0  0  0  0  0  0  0  0  0  0
   -8.5823  -21.0112   33.8342 C   0  0  0  0  0  0  0  0  0  0  0  0
   -9.1740  -19.7674   34.4489 C   0  0  0  0  0  0  0  0  0  0  0  0
   -9.9910  -18.9520   33.4086 C   0  0  0  0  0  0  0  0  0  0  0  0
  -10.7462  -19.7568   31.7490 C   0  0  0  0  0  0  0  0  0  0  0  0
   -9.7675  -24.5095   28.7723 H   0  0  0  0  0  0  0  0  0  0  0  0
   -8.6531  -23.3520   27.9475 H   0  0  0  0  0  0  0  0  0  0  0  0
   -9.5052  -24.6196   27.0651 H   0  0  0  0  0  0  0  0  0  0  0  0
  -10.5070  -23.1341   26.5340 H   0  0  0  0  0  0  0  0  0  0  0  0
  -12.6573  -23.9448   27.8607 H   0  0  0  0  0  0  0  0  0  0  0  0
  -12.5784  -23.0478   26.3605 H   0  0  0  0  0  0  0  0  0  0  0  0
  -11.8070  -24.5928   26.5138 H   0  0  0  0  0  0  0  0  0  0  0  0
  -12.5725  -20.5383   29.1935 H   0  0  0  0  0  0  0  0  0  0  0  0
  -12.1652  -22.2922   29.2401 H   0  0  0  0  0  0  0  0  0  0  0  0
  -12.8430  -21.6011   27.9451 H   0  0  0  0  0  0  0  0  0  0  0  0
  -12.2504  -20.9896   26.5969 H   0  0  0  0  0  0  0  0  0  0  0  0
   -8.3750  -19.7391   29.2064 H   0  0  0  0  0  0  0  0  0  0  0  0
   -8.1068  -19.0862   27.8500 H   0  0  0  0  0  0  0  0  0  0  0  0
   -6.4316  -14.8380   31.0272 H   0  0  0  0  0  0  0  0  0  0  0  0
   -6.7635  -12.5896   32.5301 H   0  0  0  0  0  0  0  0  0  0  0  0
   -6.9817  -13.0381   27.0704 H   0  0  0  0  0  0  0  0  0  0  0  0
   -6.2051   -8.6809   28.9727 H   0  0  0  0  0  0  0  0  0  0  0  0
   -7.8530   -9.2928   28.6260 H   0  0  0  0  0  0  0  0  0  0  0  0
  -10.4449  -21.9433   29.7973 H   0  0  0  0  0  0  0  0  0  0  0  0
  -11.6543  -21.5334   30.7277 H   0  0  0  0  0  0  0  0  0  0  0  0
   -9.4228  -22.7640   32.5730 H   0  0  0  0  0  0  0  0  0  0  0  0
  -10.7050  -22.3935   32.4778 H   0  0  0  0  0  0  0  0  0  0  0  0
   -7.5321  -20.8386   33.4957 H   0  0  0  0  0  0  0  0  0  0  0  0
   -8.3199  -21.7587   34.6188 H   0  0  0  0  0  0  0  0  0  0  0  0
   -9.7572  -19.9510   35.3554 H   0  0  0  0  0  0  0  0  0  0  0  0
   -8.3492  -19.1881   34.8356 H   0  0  0  0  0  0  0  0  0  0  0  0
  -10.8358  -18.5115   33.9873 H   0  0  0  0  0  0  0  0  0  0  0  0
   -9.4974  -17.9801   33.5296 H   0  0  0  0  0  0  0  0  0  0  0  0
  -11.8031  -20.2485   31.5876 H   0  0  0  0  0  0  0  0  0  0  0  0
  -11.5434  -19.4463   32.5117 H   0  0  0  0  0  0  0  0  0  0  0  0
  1  2  1  0
  2  3  1  0
  2  4  1  0
  4  5  1  0
  4  6  1  0
  4  7  1  0
  7  8  1  0
  8  9  1  0
  9 10  1  0
 10 11  2  0
 11 12  1  0
 12 13  2  0
 13 14  1  0
 14 15  2  0
 14 16  1  0
 16 17  1  0
 17 18  1  0
  9 19  2  0
 19 20  1  0
 20 21  2  0
 21 22  1  0
 22 23  1  0
 23 24  1  0
 24 25  1  0
 25 26  1  0
 26 27  1  0
 27 28  1  0
 21  8  1  0
 28 22  1  0
 15 10  1  0
 18 13  1  0
  1 29  1  0
  1 30  1  0
  1 31  1  0
  2 32  1  0
  3 33  1  0
  3 34  1  0
  3 35  1  0
  5 36  1  0
  5 37  1  0
  5 38  1  0
  6 39  1  0
  7 40  1  0
  7 41  1  0
 11 42  1  0
 12 43  1  0
 15 44  1  0
 17 45  1  0
 17 46  1  0
 23 47  1  0
 23 48  1  0
 24 49  1  0
 24 50  1  0
 25 51  1  0
 25 52  1  0
 26 53  1  0
 26 54  1  0
 27 55  1  0
 27 56  1  0
 28 57  1  0
 28 58  1  0
M  END
>  <Energy>  (561) 
2366.3056889960212

>  <compound_id>  (561) 
57131

>  <target_id>  (561) 
1

>  <reference_id>  (561) 
13

>  <inspiration_ids>  (561) 
[13, 3]

>  <energy_score>  (561) 
2251.9253866048093

>  <distance_score>  (561) 
9.716881135887034

>  <path>  (561) 
/opt/xchem-fragalysis-2/maxwin/BulkDock/SCRATCH/511025/C57131-P13/C57131-P13.minimised.mol

>  <scratch_subdir>  (561) 
/opt/xchem-fragalysis-2/maxwin/BulkDock/SCRATCH/511025/C57131-P13

>  <fragmenstein_runtime>  (561) 
55.70329427719116

>  <fragmenstein_outcome>  (561) 
too moved

>  <fragmenstein_mode>  (561) 
expansion

>  <fragmenstein_error>  (561) 


$$$$
C57131-P3
     RDKit          3D

 58 61  0  0  0  0  0  0  0  0999 V2000
  -12.6136  -23.5846   27.5203 C   0  0  0  0  0  0  0  0  0  0  0  0
  -11.6896  -22.4097   27.1250 C   0  0  0  0  0  0  0  0  0  0  0  0
  -11.8016  -22.3668   25.5713 C   0  0  0  0  0  0  0  0  0  0  0  0
  -12.0608  -21.0938   27.8796 C   0  0  0  0  0  0  0  0  0  0  0  0
  -11.9596  -20.6719   29.4404 C   0  0  0  0  0  0  0  0  0  0  0  0
  -13.3296  -20.8670   27.2903 O   0  0  0  0  0  0  0  0  0  0  0  0
  -11.3557  -19.8939   27.4437 C   0  0  0  0  0  0  0  0  0  0  0  0
  -10.0907  -19.6316   28.0720 N   0  0  0  0  0  0  0  0  0  0  0  0
   -9.2306  -18.4087   27.3794 C   0  0  0  0  0  0  0  0  0  0  0  0
   -9.1654  -16.4325   26.7661 C   0  0  0  0  0  0  0  0  0  0  0  0
   -8.1877  -15.3576   26.6784 C   0  0  0  0  0  0  0  0  0  0  0  0
   -8.4182  -13.7615   26.1760 C   0  0  0  0  0  0  0  0  0  0  0  0
   -9.1811  -13.2596   25.1944 C   0  0  0  0  0  0  0  0  0  0  0  0
   -9.9176  -14.2285   24.7412 C   0  0  0  0  0  0  0  0  0  0  0  0
   -9.9101  -15.5682   25.4272 C   0  0  0  0  0  0  0  0  0  0  0  0
  -10.5452  -13.8391   23.5940 O   0  0  0  0  0  0  0  0  0  0  0  0
  -10.0431  -12.4834   23.4486 C   0  0  0  0  0  0  0  0  0  0  0  0
   -9.1449  -12.1240   24.5029 O   0  0  0  0  0  0  0  0  0  0  0  0
   -7.7801  -19.1853   27.2808 N   0  0  0  0  0  0  0  0  0  0  0  0
   -7.9693  -20.5933   28.1520 N   0  0  0  0  0  0  0  0  0  0  0  0
   -9.2441  -20.9126   28.5502 C   0  0  0  0  0  0  0  0  0  0  0  0
   -9.5509  -21.9740   29.6981 N   0  0  0  0  0  0  0  0  0  0  0  0
   -8.5175  -22.3490   30.6965 C   0  0  0  0  0  0  0  0  0  0  0  0
   -8.8053  -21.8908   32.1157 C   0  0  0  0  0  0  0  0  0  0  0  0
   -9.8816  -22.7263   32.7510 C   0  0  0  0  0  0  0  0  0  0  0  0
   -9.8178  -24.1400   32.2026 C   0  0  0  0  0  0  0  0  0  0  0  0
  -10.4451  -24.2667   30.8043 C   0  0  0  0  0  0  0  0  0  0  0  0
  -10.5487  -23.0867   29.7710 C   0  0  0  0  0  0  0  0  0  0  0  0
  -12.2130  -24.5267   27.1282 H   0  0  0  0  0  0  0  0  0  0  0  0
  -12.7484  -23.7054   28.5945 H   0  0  0  0  0  0  0  0  0  0  0  0
  -13.6218  -23.4630   27.1062 H   0  0  0  0  0  0  0  0  0  0  0  0
  -10.6394  -22.6368   27.2744 H   0  0  0  0  0  0  0  0  0  0  0  0
  -12.7855  -22.6917   25.2136 H   0  0  0  0  0  0  0  0  0  0  0  0
  -11.0511  -23.0416   25.1486 H   0  0  0  0  0  0  0  0  0  0  0  0
  -11.6338  -21.3918   25.1207 H   0  0  0  0  0  0  0  0  0  0  0  0
  -11.0080  -20.5563   29.9345 H   0  0  0  0  0  0  0  0  0  0  0  0
  -12.2220  -19.6159   29.5705 H   0  0  0  0  0  0  0  0  0  0  0  0
  -12.4621  -21.2044   30.2109 H   0  0  0  0  0  0  0  0  0  0  0  0
  -13.2629  -20.6978   26.3306 H   0  0  0  0  0  0  0  0  0  0  0  0
  -12.0020  -19.0920   27.7834 H   0  0  0  0  0  0  0  0  0  0  0  0
  -11.3584  -19.8021   26.3718 H   0  0  0  0  0  0  0  0  0  0  0  0
   -7.1773  -15.2938   26.9534 H   0  0  0  0  0  0  0  0  0  0  0  0
   -7.7230  -12.9982   26.5415 H   0  0  0  0  0  0  0  0  0  0  0  0
  -10.3742  -16.0665   24.5767 H   0  0  0  0  0  0  0  0  0  0  0  0
   -9.5192  -12.4083   22.4886 H   0  0  0  0  0  0  0  0  0  0  0  0
  -10.8974  -11.7974   23.4407 H   0  0  0  0  0  0  0  0  0  0  0  0
   -7.5205  -22.1319   30.4530 H   0  0  0  0  0  0  0  0  0  0  0  0
   -8.3472  -23.4215   30.6307 H   0  0  0  0  0  0  0  0  0  0  0  0
   -9.0906  -20.8392   32.1886 H   0  0  0  0  0  0  0  0  0  0  0  0
   -7.8877  -22.0096   32.7047 H   0  0  0  0  0  0  0  0  0  0  0  0
  -10.8502  -22.2622   32.5465 H   0  0  0  0  0  0  0  0  0  0  0  0
   -9.7357  -22.7198   33.8344 H   0  0  0  0  0  0  0  0  0  0  0  0
   -8.7741  -24.4784   32.1964 H   0  0  0  0  0  0  0  0  0  0  0  0
  -10.2691  -24.8810   32.8669 H   0  0  0  0  0  0  0  0  0  0  0  0
   -9.9417  -25.0927   30.3112 H   0  0  0  0  0  0  0  0  0  0  0  0
  -11.4605  -24.6626   30.9320 H   0  0  0  0  0  0  0  0  0  0  0  0
  -11.5343  -22.7309   29.9787 H   0  0  0  0  0  0  0  0  0  0  0  0
  -10.5667  -23.6066   28.8330 H   0  0  0  0  0  0  0  0  0  0  0  0
  1  2  1  0
  2  3  1  0
  2  4  1  0
  4  5  1  0
  4  6  1  0
  4  7  1  0
  7  8  1  0
  8  9  1  0
  9 10  1  0
 10 11  2  0
 11 12  1  0
 12 13  2  0
 13 14  1  0
 14 15  2  0
 14 16  1  0
 16 17  1  0
 17 18  1  0
  9 19  2  0
 19 20  1  0
 20 21  2  0
 21 22  1  0
 22 23  1  0
 23 24  1  0
 24 25  1  0
 25 26  1  0
 26 27  1  0
 27 28  1  0
 21  8  1  0
 28 22  1  0
 15 10  1  0
 18 13  1  0
  1 29  1  0
  1 30  1  0
  1 31  1  0
  2 32  1  0
  3 33  1  0
  3 34  1  0
  3 35  1  0
  5 36  1  0
  5 37  1  0
  5 38  1  0
  6 39  1  0
  7 40  1  0
  7 41  1  0
 11 42  1  0
 12 43  1  0
 15 44  1  0
 17 45  1  0
 17 46  1  0
 23 47  1  0
 23 48  1  0
 24 49  1  0
 24 50  1  0
 25 51  1  0
 25 52  1  0
 26 53  1  0
 26 54  1  0
 27 55  1  0
 27 56  1  0
 28 57  1  0
 28 58  1  0
M  END
>  <Energy>  (562) 
610.3164416096356

>  <compound_id>  (562) 
57131

>  <target_id>  (562) 
1

>  <reference_id>  (562) 
3

>  <inspiration_ids>  (562) 
[13, 3]

>  <energy_score>  (562) 
495.9361392183923

>  <distance_score>  (562) 
11.41869557291921

>  <path>  (562) 
/opt/xchem-fragalysis-2/maxwin/BulkDock/SCRATCH/511025/C57131-P3/C57131-P3.minimised.mol

>  <scratch_subdir>  (562) 
/opt/xchem-fragalysis-2/maxwin/BulkDock/SCRATCH/511025/C57131-P3

>  <fragmenstein_runtime>  (562) 
36.984930753707886

>  <fragmenstein_outcome>  (562) 
too moved

>  <fragmenstein_mode>  (562) 
expansion

>  <fragmenstein_error>  (562) 


$$$$
C57135-P13
     RDKit          3D

 48 50  0  0  0  0  0  0  0  0999 V2000
    0.0884   -7.5173   31.1689 C   0  0  0  0  0  0  0  0  0  0  0  0
   -1.2325   -7.0245   31.7202 C   0  0  0  0  0  0  0  0  0  0  0  0
   -1.6800   -7.8432   32.9940 C   0  0  0  0  0  0  0  0  0  0  0  0
   -2.8262   -8.8101   32.8192 N   0  0  0  0  0  0  0  0  0  0  0  0
   -3.9565   -9.0498   31.5148 C   0  0  0  0  0  0  0  0  0  0  0  0
   -3.8987   -8.3209   30.6567 O   0  0  0  0  0  0  0  0  0  0  0  0
   -5.3364  -10.7371   31.3386 C   0  0  0  0  0  0  0  0  0  0  0  0
   -5.1045  -11.9526   29.6241 C   0  0  0  0  0  0  0  0  0  0  0  0
   -6.2013  -13.5115   29.6652 C   0  0  0  0  0  0  0  0  0  0  0  0
   -7.1302  -13.5282   27.9763 C   0  0  0  0  0  0  0  0  0  0  0  0
   -7.9011  -14.6834   28.3547 C   0  0  0  0  0  0  0  0  0  0  0  0
   -6.2806  -14.9593   29.3712 C   0  0  0  0  0  0  0  0  0  0  0  0
   -1.0946   -5.5564   31.7986 N   0  0  0  0  0  0  0  0  0  0  0  0
   -0.4635   -4.7254   32.7690 C   0  0  0  0  0  0  0  0  0  0  0  0
    0.0497   -4.9980   33.8145 O   0  0  0  0  0  0  0  0  0  0  0  0
   -0.3607   -3.2520   32.3283 C   0  0  0  0  0  0  0  0  0  0  0  0
    0.1962   -2.3341   33.2426 C   0  0  0  0  0  0  0  0  0  0  0  0
    0.3871   -0.9717   32.9219 C   0  0  0  0  0  0  0  0  0  0  0  0
    0.0291   -0.4812   31.6715 C   0  0  0  0  0  0  0  0  0  0  0  0
   -0.5105   -1.3765   30.7778 C   0  0  0  0  0  0  0  0  0  0  0  0
   -0.7063   -2.7159   31.0841 C   0  0  0  0  0  0  0  0  0  0  0  0
   -1.2439   -3.3700   30.0137 O   0  0  0  0  0  0  0  0  0  0  0  0
   -1.3089   -2.3188   29.0109 C   0  0  0  0  0  0  0  0  0  0  0  0
   -0.8830   -1.0434   29.5137 O   0  0  0  0  0  0  0  0  0  0  0  0
    0.8976   -7.2434   31.8507 H   0  0  0  0  0  0  0  0  0  0  0  0
    0.3170   -7.0399   30.2113 H   0  0  0  0  0  0  0  0  0  0  0  0
    0.0609   -8.5975   31.0014 H   0  0  0  0  0  0  0  0  0  0  0  0
   -1.9485   -7.1881   30.9242 H   0  0  0  0  0  0  0  0  0  0  0  0
   -1.9593   -7.1679   33.8071 H   0  0  0  0  0  0  0  0  0  0  0  0
   -0.8471   -8.4512   33.3646 H   0  0  0  0  0  0  0  0  0  0  0  0
   -2.9261   -9.5550   33.4529 H   0  0  0  0  0  0  0  0  0  0  0  0
   -5.7334  -11.2168   32.3021 H   0  0  0  0  0  0  0  0  0  0  0  0
   -6.2721  -10.5760   30.6109 H   0  0  0  0  0  0  0  0  0  0  0  0
   -4.0457  -12.2046   29.4570 H   0  0  0  0  0  0  0  0  0  0  0  0
   -5.6367  -11.6857   28.7686 H   0  0  0  0  0  0  0  0  0  0  0  0
   -6.6395  -13.4918   30.6900 H   0  0  0  0  0  0  0  0  0  0  0  0
   -6.5965  -13.4875   27.0199 H   0  0  0  0  0  0  0  0  0  0  0  0
   -7.8812  -12.9829   27.4421 H   0  0  0  0  0  0  0  0  0  0  0  0
   -8.4830  -14.6716   27.3931 H   0  0  0  0  0  0  0  0  0  0  0  0
   -7.9919  -15.7772   28.0705 H   0  0  0  0  0  0  0  0  0  0  0  0
   -5.7434  -15.9276   29.3635 H   0  0  0  0  0  0  0  0  0  0  0  0
   -6.1663  -15.1823   30.4769 H   0  0  0  0  0  0  0  0  0  0  0  0
   -1.3421   -4.9924   30.9931 H   0  0  0  0  0  0  0  0  0  0  0  0
    0.4993   -2.6772   34.2321 H   0  0  0  0  0  0  0  0  0  0  0  0
    0.8266   -0.3058   33.6616 H   0  0  0  0  0  0  0  0  0  0  0  0
    0.1801    0.5581   31.4028 H   0  0  0  0  0  0  0  0  0  0  0  0
   -2.3385   -2.2143   28.6686 H   0  0  0  0  0  0  0  0  0  0  0  0
   -0.6691   -2.6027   28.1693 H   0  0  0  0  0  0  0  0  0  0  0  0
  1  2  1  0
  2  3  1  0
  3  4  1  0
  4  5  1  0
  5  6  2  0
  5  7  1  0
  7  8  1  0
  8  9  1  0
  9 10  1  0
 10 11  1  0
 11 12  1  0
  2 13  1  0
 13 14  1  0
 14 15  2  0
 14 16  1  0
 16 17  2  0
 17 18  1  0
 18 19  2  0
 19 20  1  0
 20 21  2  0
 21 22  1  0
 22 23  1  0
 23 24  1  0
 12  9  1  0
 21 16  1  0
 24 20  1  0
  1 25  1  0
  1 26  1  0
  1 27  1  0
  2 28  1  0
  3 29  1  0
  3 30  1  0
  4 31  1  0
  7 32  1  0
  7 33  1  0
  8 34  1  0
  8 35  1  0
  9 36  1  0
 10 37  1  0
 10 38  1  0
 11 39  1  0
 11 40  1  0
 12 41  1  0
 12 42  1  0
 13 43  1  0
 17 44  1  0
 18 45  1  0
 19 46  1  0
 23 47  1  0
 23 48  1  0
M  END
>  <Energy>  (563) 
537.40711751070853

>  <compound_id>  (563) 
57135

>  <target_id>  (563) 
1

>  <reference_id>  (563) 
13

>  <inspiration_ids>  (563) 
[13, 3]

>  <energy_score>  (563) 
469.06563439227364

>  <distance_score>  (563) 
6.77124386334939

>  <path>  (563) 
/opt/xchem-fragalysis-2/maxwin/BulkDock/SCRATCH/511025/C57135-P13/C57135-P13.minimised.mol

>  <scratch_subdir>  (563) 
/opt/xchem-fragalysis-2/maxwin/BulkDock/SCRATCH/511025/C57135-P13

>  <fragmenstein_runtime>  (563) 
27.664090871810913

>  <fragmenstein_outcome>  (563) 
too moved

>  <fragmenstein_mode>  (563) 
expansion

>  <fragmenstein_error>  (563) 


$$$$
C57135-P3
     RDKit          3D

 48 50  0  0  0  0  0  0  0  0999 V2000
   -3.0118   -6.4533   29.6902 C   0  0  0  0  0  0  0  0  0  0  0  0
   -3.5840   -7.2235   28.1808 C   0  0  0  0  0  0  0  0  0  0  0  0
   -4.7833   -8.8394   27.8709 C   0  0  0  0  0  0  0  0  0  0  0  0
   -4.9499  -10.5585   27.5686 N   0  0  0  0  0  0  0  0  0  0  0  0
   -6.2543  -11.7322   27.9870 C   0  0  0  0  0  0  0  0  0  0  0  0
   -7.2180  -11.3577   28.5638 O   0  0  0  0  0  0  0  0  0  0  0  0
   -6.3289  -13.7742   27.4884 C   0  0  0  0  0  0  0  0  0  0  0  0
   -7.6984  -15.4540   27.0421 C   0  0  0  0  0  0  0  0  0  0  0  0
   -8.7500  -17.2053   27.6581 C   0  0  0  0  0  0  0  0  0  0  0  0
   -9.9391  -18.1629   29.2263 C   0  0  0  0  0  0  0  0  0  0  0  0
  -10.8291  -19.1438   28.6488 C   0  0  0  0  0  0  0  0  0  0  0  0
   -9.6921  -19.0833   27.6652 C   0  0  0  0  0  0  0  0  0  0  0  0
   -3.4843   -5.6471   27.8140 N   0  0  0  0  0  0  0  0  0  0  0  0
   -2.3591   -4.8520   27.2674 C   0  0  0  0  0  0  0  0  0  0  0  0
   -1.2894   -5.1958   26.8843 O   0  0  0  0  0  0  0  0  0  0  0  0
   -2.4449   -3.3670   27.2626 C   0  0  0  0  0  0  0  0  0  0  0  0
   -2.4908   -2.7906   28.5521 C   0  0  0  0  0  0  0  0  0  0  0  0
   -2.1729   -1.4350   28.7830 C   0  0  0  0  0  0  0  0  0  0  0  0
   -1.8043   -0.6070   27.7329 C   0  0  0  0  0  0  0  0  0  0  0  0
   -1.6910   -1.1881   26.4929 C   0  0  0  0  0  0  0  0  0  0  0  0
   -1.9342   -2.5346   26.2694 C   0  0  0  0  0  0  0  0  0  0  0  0
   -1.6832   -2.8581   24.9676 O   0  0  0  0  0  0  0  0  0  0  0  0
   -1.3615   -1.5727   24.3998 C   0  0  0  0  0  0  0  0  0  0  0  0
   -1.3220   -0.5144   25.3713 O   0  0  0  0  0  0  0  0  0  0  0  0
   -2.1806   -5.7761   29.4851 H   0  0  0  0  0  0  0  0  0  0  0  0
   -3.7935   -5.7804   30.0886 H   0  0  0  0  0  0  0  0  0  0  0  0
   -2.5832   -7.0346   30.5127 H   0  0  0  0  0  0  0  0  0  0  0  0
   -2.6704   -7.5885   27.6697 H   0  0  0  0  0  0  0  0  0  0  0  0
   -5.8252   -8.6436   28.1365 H   0  0  0  0  0  0  0  0  0  0  0  0
   -4.2823   -8.9744   26.9081 H   0  0  0  0  0  0  0  0  0  0  0  0
   -4.1907  -11.0560   27.1743 H   0  0  0  0  0  0  0  0  0  0  0  0
   -6.0708  -13.9853   28.5354 H   0  0  0  0  0  0  0  0  0  0  0  0
   -5.2614  -14.0087   27.4354 H   0  0  0  0  0  0  0  0  0  0  0  0
   -8.3594  -14.9764   26.3206 H   0  0  0  0  0  0  0  0  0  0  0  0
   -7.8020  -15.7464   28.1046 H   0  0  0  0  0  0  0  0  0  0  0  0
   -9.3612  -16.5393   27.0094 H   0  0  0  0  0  0  0  0  0  0  0  0
  -10.2174  -17.7879   30.2478 H   0  0  0  0  0  0  0  0  0  0  0  0
   -9.5961  -18.8064   30.0068 H   0  0  0  0  0  0  0  0  0  0  0  0
  -11.8644  -18.8580   28.4518 H   0  0  0  0  0  0  0  0  0  0  0  0
  -10.9361  -20.1042   29.1779 H   0  0  0  0  0  0  0  0  0  0  0  0
  -10.3289  -19.4385   26.8598 H   0  0  0  0  0  0  0  0  0  0  0  0
   -9.1718  -19.9280   28.2173 H   0  0  0  0  0  0  0  0  0  0  0  0
   -4.2840   -5.0356   27.9651 H   0  0  0  0  0  0  0  0  0  0  0  0
   -2.7022   -3.4125   29.4186 H   0  0  0  0  0  0  0  0  0  0  0  0
   -2.2158   -1.0342   29.7928 H   0  0  0  0  0  0  0  0  0  0  0  0
   -1.5786    0.4417   27.8867 H   0  0  0  0  0  0  0  0  0  0  0  0
   -2.1097   -1.3248   23.6390 H   0  0  0  0  0  0  0  0  0  0  0  0
   -0.3819   -1.6317   23.9154 H   0  0  0  0  0  0  0  0  0  0  0  0
  1  2  1  0
  2  3  1  0
  3  4  1  0
  4  5  1  0
  5  6  2  0
  5  7  1  0
  7  8  1  0
  8  9  1  0
  9 10  1  0
 10 11  1  0
 11 12  1  0
  2 13  1  0
 13 14  1  0
 14 15  2  0
 14 16  1  0
 16 17  2  0
 17 18  1  0
 18 19  2  0
 19 20  1  0
 20 21  2  0
 21 22  1  0
 22 23  1  0
 23 24  1  0
 12  9  1  0
 21 16  1  0
 24 20  1  0
  1 25  1  0
  1 26  1  0
  1 27  1  0
  2 28  1  0
  3 29  1  0
  3 30  1  0
  4 31  1  0
  7 32  1  0
  7 33  1  0
  8 34  1  0
  8 35  1  0
  9 36  1  0
 10 37  1  0
 10 38  1  0
 11 39  1  0
 11 40  1  0
 12 41  1  0
 12 42  1  0
 13 43  1  0
 17 44  1  0
 18 45  1  0
 19 46  1  0
 23 47  1  0
 23 48  1  0
M  END
>  <Energy>  (564) 
1093.4264808722162

>  <compound_id>  (564) 
57135

>  <target_id>  (564) 
1

>  <reference_id>  (564) 
3

>  <inspiration_ids>  (564) 
[13, 3]

>  <energy_score>  (564) 
1025.0849977537794

>  <distance_score>  (564) 
5.260878415259613

>  <path>  (564) 
/opt/xchem-fragalysis-2/maxwin/BulkDock/SCRATCH/511025/C57135-P3/C57135-P3.minimised.mol

>  <scratch_subdir>  (564) 
/opt/xchem-fragalysis-2/maxwin/BulkDock/SCRATCH/511025/C57135-P3

>  <fragmenstein_runtime>  (564) 
18.417627573013306

>  <fragmenstein_outcome>  (564) 
too moved

>  <fragmenstein_mode>  (564) 
expansion

>  <fragmenstein_error>  (564) 


$$$$
C57139-P13
     RDKit          3D

 48 50  0  0  0  0  0  0  0  0999 V2000
   -1.4765   -8.1561   33.7923 C   0  0  0  0  0  0  0  0  0  0  0  0
   -2.6727   -7.4768   34.3275 N   0  0  0  0  0  0  0  0  0  0  0  0
   -1.5934   -6.6994   35.1365 C   0  0  0  0  0  0  0  0  0  0  0  0
   -0.9773   -5.4268   34.3262 C   0  0  0  0  0  0  0  0  0  0  0  0
   -0.3898   -4.3552   35.0411 C   0  0  0  0  0  0  0  0  0  0  0  0
   -0.0376   -3.1318   34.4098 C   0  0  0  0  0  0  0  0  0  0  0  0
   -0.2861   -2.9740   33.0606 C   0  0  0  0  0  0  0  0  0  0  0  0
   -0.8115   -4.0037   32.3345 C   0  0  0  0  0  0  0  0  0  0  0  0
   -1.1261   -5.2242   32.9235 C   0  0  0  0  0  0  0  0  0  0  0  0
   -1.0388   -3.6648   31.0341 O   0  0  0  0  0  0  0  0  0  0  0  0
   -0.5947   -2.2900   31.0256 C   0  0  0  0  0  0  0  0  0  0  0  0
   -0.0963   -1.8519   32.3121 O   0  0  0  0  0  0  0  0  0  0  0  0
   -3.8015   -8.5993   34.8361 C   0  0  0  0  0  0  0  0  0  0  0  0
   -3.9569   -9.1111   35.9221 O   0  0  0  0  0  0  0  0  0  0  0  0
   -4.8590   -9.1730   33.4000 C   0  0  0  0  0  0  0  0  0  0  0  0
   -4.8181   -8.5096   32.3776 O   0  0  0  0  0  0  0  0  0  0  0  0
   -5.7005  -10.7381   33.6470 N   0  0  0  0  0  0  0  0  0  0  0  0
   -6.6469  -11.8964   32.3998 C   0  0  0  0  0  0  0  0  0  0  0  0
   -6.4791  -13.5718   31.3243 C   0  0  0  0  0  0  0  0  0  0  0  0
   -5.7816  -13.9142   29.6793 C   0  0  0  0  0  0  0  0  0  0  0  0
   -6.5164  -13.9374   28.3044 C   0  0  0  0  0  0  0  0  0  0  0  0
   -5.6971  -14.8371   27.3979 C   0  0  0  0  0  0  0  0  0  0  0  0
   -5.2574  -15.9413   28.3062 C   0  0  0  0  0  0  0  0  0  0  0  0
   -5.0516  -15.2857   29.6689 C   0  0  0  0  0  0  0  0  0  0  0  0
   -1.8747   -8.8599   33.0555 H   0  0  0  0  0  0  0  0  0  0  0  0
   -0.8431   -7.5721   33.1222 H   0  0  0  0  0  0  0  0  0  0  0  0
   -0.7752   -8.5898   34.5093 H   0  0  0  0  0  0  0  0  0  0  0  0
   -0.8539   -7.2473   35.7412 H   0  0  0  0  0  0  0  0  0  0  0  0
   -2.1855   -6.2004   35.9062 H   0  0  0  0  0  0  0  0  0  0  0  0
   -0.2601   -4.4399   36.1189 H   0  0  0  0  0  0  0  0  0  0  0  0
    0.3755   -2.3151   34.9924 H   0  0  0  0  0  0  0  0  0  0  0  0
   -1.5733   -5.9730   32.2821 H   0  0  0  0  0  0  0  0  0  0  0  0
   -1.4367   -1.6497   30.7380 H   0  0  0  0  0  0  0  0  0  0  0  0
    0.2051   -2.1827   30.2840 H   0  0  0  0  0  0  0  0  0  0  0  0
   -5.6340  -11.0115   34.6229 H   0  0  0  0  0  0  0  0  0  0  0  0
   -7.6615  -11.5269   32.2300 H   0  0  0  0  0  0  0  0  0  0  0  0
   -7.1387  -12.5239   33.1227 H   0  0  0  0  0  0  0  0  0  0  0  0
   -7.4013  -14.1313   31.3549 H   0  0  0  0  0  0  0  0  0  0  0  0
   -5.8878  -14.3076   31.8657 H   0  0  0  0  0  0  0  0  0  0  0  0
   -5.0089  -13.1664   29.4602 H   0  0  0  0  0  0  0  0  0  0  0  0
   -6.4753  -12.9565   27.8262 H   0  0  0  0  0  0  0  0  0  0  0  0
   -7.5537  -14.2685   28.3137 H   0  0  0  0  0  0  0  0  0  0  0  0
   -4.8253  -14.2924   27.0146 H   0  0  0  0  0  0  0  0  0  0  0  0
   -6.2707  -15.1973   26.5388 H   0  0  0  0  0  0  0  0  0  0  0  0
   -4.3421  -16.4112   27.9330 H   0  0  0  0  0  0  0  0  0  0  0  0
   -6.0396  -16.7027   28.3414 H   0  0  0  0  0  0  0  0  0  0  0  0
   -5.4258  -15.9146   30.4609 H   0  0  0  0  0  0  0  0  0  0  0  0
   -3.9775  -15.1617   29.8418 H   0  0  0  0  0  0  0  0  0  0  0  0
  1  2  1  0
  2  3  1  0
  3  4  1  0
  4  5  2  0
  5  6  1  0
  6  7  2  0
  7  8  1  0
  8  9  2  0
  8 10  1  0
 10 11  1  0
 11 12  1  0
  2 13  1  0
 13 14  2  0
 13 15  1  0
 15 16  2  0
 15 17  1  0
 17 18  1  0
 18 19  1  0
 19 20  1  0
 20 21  1  0
 21 22  1  0
 22 23  1  0
 23 24  1  0
  9  4  1  0
 24 20  1  0
 12  7  1  0
  1 25  1  0
  1 26  1  0
  1 27  1  0
  3 28  1  0
  3 29  1  0
  5 30  1  0
  6 31  1  0
  9 32  1  0
 11 33  1  0
 11 34  1  0
 17 35  1  0
 18 36  1  0
 18 37  1  0
 19 38  1  0
 19 39  1  0
 20 40  1  0
 21 41  1  0
 21 42  1  0
 22 43  1  0
 22 44  1  0
 23 45  1  0
 23 46  1  0
 24 47  1  0
 24 48  1  0
M  END
>  <Energy>  (565) 
433.693891698973

>  <compound_id>  (565) 
57139

>  <target_id>  (565) 
1

>  <reference_id>  (565) 
13

>  <inspiration_ids>  (565) 
[13, 3]

>  <energy_score>  (565) 
332.8661016233377

>  <distance_score>  (565) 
8.246615467471095

>  <path>  (565) 
/opt/xchem-fragalysis-2/maxwin/BulkDock/SCRATCH/511025/C57139-P13/C57139-P13.minimised.mol

>  <scratch_subdir>  (565) 
/opt/xchem-fragalysis-2/maxwin/BulkDock/SCRATCH/511025/C57139-P13

>  <fragmenstein_runtime>  (565) 
36.792742013931274

>  <fragmenstein_outcome>  (565) 
too moved

>  <fragmenstein_mode>  (565) 
expansion

>  <fragmenstein_error>  (565) 


$$$$
C57139-P3
     RDKit          3D

 48 50  0  0  0  0  0  0  0  0999 V2000
   -4.9308   -6.3111   31.7214 C   0  0  0  0  0  0  0  0  0  0  0  0
   -3.9309   -7.6767   32.4419 N   0  0  0  0  0  0  0  0  0  0  0  0
   -2.8638   -6.5452   31.4530 C   0  0  0  0  0  0  0  0  0  0  0  0
   -2.9708   -5.1839   30.5536 C   0  0  0  0  0  0  0  0  0  0  0  0
   -2.8167   -3.8934   31.1252 C   0  0  0  0  0  0  0  0  0  0  0  0
   -2.4581   -2.7576   30.3770 C   0  0  0  0  0  0  0  0  0  0  0  0
   -2.2728   -2.9139   29.0290 C   0  0  0  0  0  0  0  0  0  0  0  0
   -2.5002   -4.1259   28.4258 C   0  0  0  0  0  0  0  0  0  0  0  0
   -2.8732   -5.2585   29.1452 C   0  0  0  0  0  0  0  0  0  0  0  0
   -2.2642   -4.0684   27.0843 O   0  0  0  0  0  0  0  0  0  0  0  0
   -1.6201   -2.7727   26.9920 C   0  0  0  0  0  0  0  0  0  0  0  0
   -1.8587   -1.9567   28.1570 O   0  0  0  0  0  0  0  0  0  0  0  0
   -4.1533   -9.5485   32.3279 C   0  0  0  0  0  0  0  0  0  0  0  0
   -3.6257  -10.1637   31.4611 O   0  0  0  0  0  0  0  0  0  0  0  0
   -4.9867  -10.6709   33.3930 C   0  0  0  0  0  0  0  0  0  0  0  0
   -4.5721  -10.5474   34.5176 O   0  0  0  0  0  0  0  0  0  0  0  0
   -6.2807  -11.8818   32.7462 N   0  0  0  0  0  0  0  0  0  0  0  0
   -7.1632  -13.2584   33.5709 C   0  0  0  0  0  0  0  0  0  0  0  0
   -7.4242  -14.9702   32.7035 C   0  0  0  0  0  0  0  0  0  0  0  0
   -8.4711  -16.6155   32.6159 C   0  0  0  0  0  0  0  0  0  0  0  0
   -9.9135  -17.4897   31.9940 C   0  0  0  0  0  0  0  0  0  0  0  0
  -10.1554  -19.0438   32.1701 C   0  0  0  0  0  0  0  0  0  0  0  0
   -8.8724  -19.6437   32.6962 C   0  0  0  0  0  0  0  0  0  0  0  0
   -7.7258  -18.1261   32.7397 C   0  0  0  0  0  0  0  0  0  0  0  0
   -5.9521   -6.2259   32.1059 H   0  0  0  0  0  0  0  0  0  0  0  0
   -5.0835   -6.0101   30.6627 H   0  0  0  0  0  0  0  0  0  0  0  0
   -4.5929   -5.4336   32.2964 H   0  0  0  0  0  0  0  0  0  0  0  0
   -2.5637   -7.2242   30.6749 H   0  0  0  0  0  0  0  0  0  0  0  0
   -1.8375   -6.5265   31.8170 H   0  0  0  0  0  0  0  0  0  0  0  0
   -2.8784   -3.7749   32.1990 H   0  0  0  0  0  0  0  0  0  0  0  0
   -2.2978   -1.7938   30.8460 H   0  0  0  0  0  0  0  0  0  0  0  0
   -2.9839   -6.2034   28.6269 H   0  0  0  0  0  0  0  0  0  0  0  0
   -2.0002   -2.2446   26.1130 H   0  0  0  0  0  0  0  0  0  0  0  0
   -0.5405   -2.9134   26.8609 H   0  0  0  0  0  0  0  0  0  0  0  0
   -6.3604  -11.8172   31.8121 H   0  0  0  0  0  0  0  0  0  0  0  0
   -8.1778  -12.8557   33.6269 H   0  0  0  0  0  0  0  0  0  0  0  0
   -6.7664  -13.4113   34.5562 H   0  0  0  0  0  0  0  0  0  0  0  0
   -6.6133  -15.4782   33.2021 H   0  0  0  0  0  0  0  0  0  0  0  0
   -7.0774  -14.7070   31.7008 H   0  0  0  0  0  0  0  0  0  0  0  0
   -9.3301  -15.9811   32.8128 H   0  0  0  0  0  0  0  0  0  0  0  0
   -9.9798  -17.4588   30.9400 H   0  0  0  0  0  0  0  0  0  0  0  0
  -10.7957  -17.0749   32.5004 H   0  0  0  0  0  0  0  0  0  0  0  0
  -10.4813  -19.4970   31.2283 H   0  0  0  0  0  0  0  0  0  0  0  0
  -10.9807  -19.2197   32.8731 H   0  0  0  0  0  0  0  0  0  0  0  0
   -8.4860  -20.5479   32.2038 H   0  0  0  0  0  0  0  0  0  0  0  0
   -9.0102  -20.1045   33.6653 H   0  0  0  0  0  0  0  0  0  0  0  0
   -7.3161  -18.5963   33.5818 H   0  0  0  0  0  0  0  0  0  0  0  0
   -6.8416  -18.1138   32.1052 H   0  0  0  0  0  0  0  0  0  0  0  0
  1  2  1  0
  2  3  1  0
  3  4  1  0
  4  5  2  0
  5  6  1  0
  6  7  2  0
  7  8  1  0
  8  9  2  0
  8 10  1  0
 10 11  1  0
 11 12  1  0
  2 13  1  0
 13 14  2  0
 13 15  1  0
 15 16  2  0
 15 17  1  0
 17 18  1  0
 18 19  1  0
 19 20  1  0
 20 21  1  0
 21 22  1  0
 22 23  1  0
 23 24  1  0
  9  4  1  0
 24 20  1  0
 12  7  1  0
  1 25  1  0
  1 26  1  0
  1 27  1  0
  3 28  1  0
  3 29  1  0
  5 30  1  0
  6 31  1  0
  9 32  1  0
 11 33  1  0
 11 34  1  0
 17 35  1  0
 18 36  1  0
 18 37  1  0
 19 38  1  0
 19 39  1  0
 20 40  1  0
 21 41  1  0
 21 42  1  0
 22 43  1  0
 22 44  1  0
 23 45  1  0
 23 46  1  0
 24 47  1  0
 24 48  1  0
M  END
>  <Energy>  (566) 
790.79217549620182

>  <compound_id>  (566) 
57139

>  <target_id>  (566) 
1

>  <reference_id>  (566) 
3

>  <inspiration_ids>  (566) 
[13, 3]

>  <energy_score>  (566) 
689.9643854205824

>  <distance_score>  (566) 
6.164183341021363

>  <path>  (566) 
/opt/xchem-fragalysis-2/maxwin/BulkDock/SCRATCH/511025/C57139-P3/C57139-P3.minimised.mol

>  <scratch_subdir>  (566) 
/opt/xchem-fragalysis-2/maxwin/BulkDock/SCRATCH/511025/C57139-P3

>  <fragmenstein_runtime>  (566) 
28.401702165603638

>  <fragmenstein_outcome>  (566) 
too moved

>  <fragmenstein_mode>  (566) 
expansion

>  <fragmenstein_error>  (566) 


$$$$
C57166-P13
     RDKit          3D

 45 48  0  0  0  0  0  0  0  0999 V2000
    2.0610   -7.1540   29.9980 O   0  0  0  0  0  0  0  0  0  0  0  0
    0.9960   -7.6219   30.2839 C   0  0  0  0  0  0  0  0  0  0  0  0
   -0.1015   -6.6960   30.8464 C   0  0  0  0  0  0  0  0  0  0  0  0
    0.3740   -5.2806   31.2627 C   0  0  0  0  0  0  0  0  0  0  0  0
    0.2782   -4.1265   30.2738 C   0  0  0  0  0  0  0  0  0  0  0  0
    1.3764   -3.7979   29.4469 C   0  0  0  0  0  0  0  0  0  0  0  0
    1.3629   -2.6537   28.6308 C   0  0  0  0  0  0  0  0  0  0  0  0
    0.2318   -1.8670   28.6291 C   0  0  0  0  0  0  0  0  0  0  0  0
   -0.8520   -2.1810   29.4096 C   0  0  0  0  0  0  0  0  0  0  0  0
   -0.8524   -3.2849   30.2477 C   0  0  0  0  0  0  0  0  0  0  0  0
   -1.8575   -1.2711   29.2783 O   0  0  0  0  0  0  0  0  0  0  0  0
   -1.3541   -0.4820   28.1756 C   0  0  0  0  0  0  0  0  0  0  0  0
    0.0456   -0.7220   27.9168 O   0  0  0  0  0  0  0  0  0  0  0  0
    0.4761   -8.9795   30.1185 N   0  0  0  0  0  0  0  0  0  0  0  0
    1.0650  -10.1679   29.4610 C   0  0  0  0  0  0  0  0  0  0  0  0
    2.4629  -10.5053   30.0765 C   0  0  0  0  0  0  0  0  0  0  0  0
    1.7301  -11.5323   30.9675 C   0  0  0  0  0  0  0  0  0  0  0  0
    0.7006  -11.6472   29.8199 C   0  0  0  0  0  0  0  0  0  0  0  0
   -0.7152  -11.9955   30.3276 C   0  0  0  0  0  0  0  0  0  0  0  0
   -1.6381  -12.4775   29.1883 C   0  0  0  0  0  0  0  0  0  0  0  0
   -1.3068  -13.9425   29.5380 C   0  0  0  0  0  0  0  0  0  0  0  0
   -0.7629  -13.4506   30.8861 C   0  0  0  0  0  0  0  0  0  0  0  0
   -0.4919   -7.1917   31.7448 H   0  0  0  0  0  0  0  0  0  0  0  0
   -0.9094   -6.6398   30.1151 H   0  0  0  0  0  0  0  0  0  0  0  0
    1.4020   -5.3263   31.6456 H   0  0  0  0  0  0  0  0  0  0  0  0
   -0.2276   -4.9874   32.1352 H   0  0  0  0  0  0  0  0  0  0  0  0
    2.2685   -4.4234   29.4615 H   0  0  0  0  0  0  0  0  0  0  0  0
    2.2176   -2.3945   28.0173 H   0  0  0  0  0  0  0  0  0  0  0  0
   -1.7066   -3.4621   30.8886 H   0  0  0  0  0  0  0  0  0  0  0  0
   -1.9370   -0.7100   27.2748 H   0  0  0  0  0  0  0  0  0  0  0  0
   -1.4855    0.5773   28.4215 H   0  0  0  0  0  0  0  0  0  0  0  0
   -0.4943   -8.9976   30.3967 H   0  0  0  0  0  0  0  0  0  0  0  0
    1.0968   -9.9930   28.3789 H   0  0  0  0  0  0  0  0  0  0  0  0
    3.1616  -10.9551   29.3603 H   0  0  0  0  0  0  0  0  0  0  0  0
    2.9874   -9.7125   30.6161 H   0  0  0  0  0  0  0  0  0  0  0  0
    1.3408  -11.1118   31.9023 H   0  0  0  0  0  0  0  0  0  0  0  0
    2.2959  -12.4393   31.1963 H   0  0  0  0  0  0  0  0  0  0  0  0
    1.0479  -12.3429   29.0399 H   0  0  0  0  0  0  0  0  0  0  0  0
   -1.1563  -11.2497   30.9963 H   0  0  0  0  0  0  0  0  0  0  0  0
   -2.6774  -12.1978   29.3725 H   0  0  0  0  0  0  0  0  0  0  0  0
   -1.3684  -12.1674   28.1747 H   0  0  0  0  0  0  0  0  0  0  0  0
   -2.1468  -14.6362   29.6073 H   0  0  0  0  0  0  0  0  0  0  0  0
   -0.5394  -14.3812   28.8906 H   0  0  0  0  0  0  0  0  0  0  0  0
    0.1911  -13.8983   31.1815 H   0  0  0  0  0  0  0  0  0  0  0  0
   -1.4531  -13.5732   31.7264 H   0  0  0  0  0  0  0  0  0  0  0  0
  1  2  2  0
  2  3  1  0
  3  4  1  0
  4  5  1  0
  5  6  2  0
  6  7  1  0
  7  8  2  0
  8  9  1  0
  9 10  2  0
  9 11  1  0
 11 12  1  0
 12 13  1  0
  2 14  1  0
 14 15  1  0
 15 16  1  0
 16 17  1  0
 17 18  1  0
 18 19  1  0
 19 20  1  0
 20 21  1  0
 21 22  1  0
 10  5  1  0
 18 15  1  0
 22 19  1  0
 13  8  1  0
  3 23  1  0
  3 24  1  0
  4 25  1  0
  4 26  1  0
  6 27  1  0
  7 28  1  0
 10 29  1  0
 12 30  1  0
 12 31  1  0
 14 32  1  0
 15 33  1  0
 16 34  1  0
 16 35  1  0
 17 36  1  0
 17 37  1  0
 18 38  1  0
 19 39  1  0
 20 40  1  0
 20 41  1  0
 21 42  1  0
 21 43  1  0
 22 44  1  0
 22 45  1  0
M  END
>  <Energy>  (567) 
45.139937716064729

>  <compound_id>  (567) 
57166

>  <target_id>  (567) 
1

>  <reference_id>  (567) 
13

>  <inspiration_ids>  (567) 
[13, 3]

>  <energy_score>  (567) 
-17.138504632388276

>  <distance_score>  (567) 
8.617561645240523

>  <path>  (567) 
/opt/xchem-fragalysis-2/maxwin/BulkDock/SCRATCH/511025/C57166-P13/C57166-P13.minimised.mol

>  <scratch_subdir>  (567) 
/opt/xchem-fragalysis-2/maxwin/BulkDock/SCRATCH/511025/C57166-P13

>  <fragmenstein_runtime>  (567) 
23.488306522369385

>  <fragmenstein_outcome>  (567) 
too moved

>  <fragmenstein_mode>  (567) 
expansion

>  <fragmenstein_error>  (567) 


$$$$
C57166-P3
     RDKit          3D

 45 48  0  0  0  0  0  0  0  0999 V2000
   -4.6531   -9.9526   27.3037 O   0  0  0  0  0  0  0  0  0  0  0  0
   -5.6673   -9.7799   27.9339 C   0  0  0  0  0  0  0  0  0  0  0  0
   -6.3426   -8.3134   28.2533 C   0  0  0  0  0  0  0  0  0  0  0  0
   -5.4105   -6.7022   28.8968 C   0  0  0  0  0  0  0  0  0  0  0  0
   -4.2018   -5.5932   29.1038 C   0  0  0  0  0  0  0  0  0  0  0  0
   -3.8358   -5.1941   30.4371 C   0  0  0  0  0  0  0  0  0  0  0  0
   -2.9564   -4.1192   30.7222 C   0  0  0  0  0  0  0  0  0  0  0  0
   -2.3774   -3.4367   29.6860 C   0  0  0  0  0  0  0  0  0  0  0  0
   -2.6571   -3.8023   28.4069 C   0  0  0  0  0  0  0  0  0  0  0  0
   -3.5451   -4.8422   28.1108 C   0  0  0  0  0  0  0  0  0  0  0  0
   -2.1349   -2.9334   27.4959 O   0  0  0  0  0  0  0  0  0  0  0  0
   -1.4390   -2.0133   28.3660 C   0  0  0  0  0  0  0  0  0  0  0  0
   -1.6061   -2.3246   29.7696 O   0  0  0  0  0  0  0  0  0  0  0  0
   -6.5871  -10.8298   28.7545 N   0  0  0  0  0  0  0  0  0  0  0  0
   -6.3289  -12.5399   29.1290 C   0  0  0  0  0  0  0  0  0  0  0  0
   -7.7733  -12.2219   30.5601 C   0  0  0  0  0  0  0  0  0  0  0  0
   -7.0075  -13.0568   31.6216 C   0  0  0  0  0  0  0  0  0  0  0  0
   -6.3341  -13.9926   30.5902 C   0  0  0  0  0  0  0  0  0  0  0  0
   -7.6369  -15.3550   29.8235 C   0  0  0  0  0  0  0  0  0  0  0  0
   -8.1549  -16.7591   28.1776 C   0  0  0  0  0  0  0  0  0  0  0  0
   -9.5873  -17.9143   29.6176 C   0  0  0  0  0  0  0  0  0  0  0  0
   -9.0643  -16.5258   31.2513 C   0  0  0  0  0  0  0  0  0  0  0  0
   -6.8832   -8.5811   29.1346 H   0  0  0  0  0  0  0  0  0  0  0  0
   -7.0471   -7.9925   27.4578 H   0  0  0  0  0  0  0  0  0  0  0  0
   -5.9173   -6.5802   29.8485 H   0  0  0  0  0  0  0  0  0  0  0  0
   -4.5134   -7.2759   28.6638 H   0  0  0  0  0  0  0  0  0  0  0  0
   -4.3196   -5.6397   31.3074 H   0  0  0  0  0  0  0  0  0  0  0  0
   -2.7991   -3.8052   31.7461 H   0  0  0  0  0  0  0  0  0  0  0  0
   -3.8558   -4.8417   27.0898 H   0  0  0  0  0  0  0  0  0  0  0  0
   -0.3723   -2.0199   28.1190 H   0  0  0  0  0  0  0  0  0  0  0  0
   -1.8319   -1.0056   28.1877 H   0  0  0  0  0  0  0  0  0  0  0  0
   -7.3162  -10.3377   29.2313 H   0  0  0  0  0  0  0  0  0  0  0  0
   -6.1238  -13.0202   28.1631 H   0  0  0  0  0  0  0  0  0  0  0  0
   -8.7871  -12.5857   30.6234 H   0  0  0  0  0  0  0  0  0  0  0  0
   -8.0090  -11.1728   30.6362 H   0  0  0  0  0  0  0  0  0  0  0  0
   -7.6474  -13.5711   32.3478 H   0  0  0  0  0  0  0  0  0  0  0  0
   -6.2792  -12.5011   32.2241 H   0  0  0  0  0  0  0  0  0  0  0  0
   -5.4351  -14.3527   31.0880 H   0  0  0  0  0  0  0  0  0  0  0  0
   -6.6620  -15.7139   29.4658 H   0  0  0  0  0  0  0  0  0  0  0  0
   -8.0951  -15.8864   27.4503 H   0  0  0  0  0  0  0  0  0  0  0  0
   -8.9039  -16.6267   27.3283 H   0  0  0  0  0  0  0  0  0  0  0  0
   -9.7155  -18.7697   30.2909 H   0  0  0  0  0  0  0  0  0  0  0  0
  -10.5322  -18.2725   29.1683 H   0  0  0  0  0  0  0  0  0  0  0  0
   -9.7597  -16.1112   32.0134 H   0  0  0  0  0  0  0  0  0  0  0  0
   -8.6439  -17.1736   32.0996 H   0  0  0  0  0  0  0  0  0  0  0  0
  1  2  2  0
  2  3  1  0
  3  4  1  0
  4  5  1  0
  5  6  2  0
  6  7  1  0
  7  8  2  0
  8  9  1  0
  9 10  2  0
  9 11  1  0
 11 12  1  0
 12 13  1  0
  2 14  1  0
 14 15  1  0
 15 16  1  0
 16 17  1  0
 17 18  1  0
 18 19  1  0
 19 20  1  0
 20 21  1  0
 21 22  1  0
 10  5  1  0
 18 15  1  0
 22 19  1  0
 13  8  1  0
  3 23  1  0
  3 24  1  0
  4 25  1  0
  4 26  1  0
  6 27  1  0
  7 28  1  0
 10 29  1  0
 12 30  1  0
 12 31  1  0
 14 32  1  0
 15 33  1  0
 16 34  1  0
 16 35  1  0
 17 36  1  0
 17 37  1  0
 18 38  1  0
 19 39  1  0
 20 40  1  0
 20 41  1  0
 21 42  1  0
 21 43  1  0
 22 44  1  0
 22 45  1  0
M  END
>  <Energy>  (568) 
1104.5399951688066

>  <compound_id>  (568) 
57166

>  <target_id>  (568) 
1

>  <reference_id>  (568) 
3

>  <inspiration_ids>  (568) 
[13, 3]

>  <energy_score>  (568) 
1042.2615528203364

>  <distance_score>  (568) 
7.609009791340958

>  <path>  (568) 
/opt/xchem-fragalysis-2/maxwin/BulkDock/SCRATCH/511025/C57166-P3/C57166-P3.minimised.mol

>  <scratch_subdir>  (568) 
/opt/xchem-fragalysis-2/maxwin/BulkDock/SCRATCH/511025/C57166-P3

>  <fragmenstein_runtime>  (568) 
15.005716800689697

>  <fragmenstein_outcome>  (568) 
too moved

>  <fragmenstein_mode>  (568) 
expansion

>  <fragmenstein_error>  (568) 


$$$$
C57167-P13
     RDKit          3D

 48 51  0  0  0  0  0  0  0  0999 V2000
   -5.3362  -10.0564   36.0899 O   0  0  0  0  0  0  0  0  0  0  0  0
   -5.0488   -9.9557   34.9104 C   0  0  0  0  0  0  0  0  0  0  0  0
   -3.5432   -8.9829   34.6102 C   0  0  0  0  0  0  0  0  0  0  0  0
   -2.4257   -7.8211   34.8696 C   0  0  0  0  0  0  0  0  0  0  0  0
   -1.6144   -7.1080   33.6942 C   0  0  0  0  0  0  0  0  0  0  0  0
   -1.3508   -7.6937   32.4363 C   0  0  0  0  0  0  0  0  0  0  0  0
   -0.8013   -6.9531   31.3628 C   0  0  0  0  0  0  0  0  0  0  0  0
   -0.5369   -5.6131   31.5457 C   0  0  0  0  0  0  0  0  0  0  0  0
   -0.7176   -5.0308   32.7692 C   0  0  0  0  0  0  0  0  0  0  0  0
   -1.1835   -5.7627   33.8618 C   0  0  0  0  0  0  0  0  0  0  0  0
   -0.4666   -3.6904   32.7348 O   0  0  0  0  0  0  0  0  0  0  0  0
   -0.1595   -3.4951   31.3357 C   0  0  0  0  0  0  0  0  0  0  0  0
   -0.1387   -4.7298   30.5910 O   0  0  0  0  0  0  0  0  0  0  0  0
   -5.7822  -10.6294   33.5603 N   0  0  0  0  0  0  0  0  0  0  0  0
   -7.3506  -11.6509   33.4055 C   0  0  0  0  0  0  0  0  0  0  0  0
   -8.5707  -11.7788   32.6617 C   0  0  0  0  0  0  0  0  0  0  0  0
   -8.8373  -13.7277   33.0565 C   0  0  0  0  0  0  0  0  0  0  0  0
   -9.9146  -15.2809   33.7100 C   0  0  0  0  0  0  0  0  0  0  0  0
   -9.4439  -16.7041   34.5725 C   0  0  0  0  0  0  0  0  0  0  0  0
  -10.5363  -17.5083   35.2468 C   0  0  0  0  0  0  0  0  0  0  0  0
  -11.8266  -16.8254   34.9762 C   0  0  0  0  0  0  0  0  0  0  0  0
  -11.4887  -15.4743   34.2633 C   0  0  0  0  0  0  0  0  0  0  0  0
   -7.1079  -12.9677   32.6545 C   0  0  0  0  0  0  0  0  0  0  0  0
   -3.2227   -9.1035   33.5996 H   0  0  0  0  0  0  0  0  0  0  0  0
   -3.0980   -9.6389   35.3673 H   0  0  0  0  0  0  0  0  0  0  0  0
   -1.6574   -8.1855   35.5641 H   0  0  0  0  0  0  0  0  0  0  0  0
   -2.9229   -7.0089   35.3441 H   0  0  0  0  0  0  0  0  0  0  0  0
   -1.6035   -8.7342   32.2619 H   0  0  0  0  0  0  0  0  0  0  0  0
   -0.6399   -7.4155   30.3960 H   0  0  0  0  0  0  0  0  0  0  0  0
   -1.3196   -5.2544   34.8129 H   0  0  0  0  0  0  0  0  0  0  0  0
    0.8242   -3.0194   31.2561 H   0  0  0  0  0  0  0  0  0  0  0  0
   -0.9135   -2.8302   30.8983 H   0  0  0  0  0  0  0  0  0  0  0  0
   -5.3427  -10.2770   32.7187 H   0  0  0  0  0  0  0  0  0  0  0  0
   -7.8290  -11.4977   34.3999 H   0  0  0  0  0  0  0  0  0  0  0  0
   -8.0672  -11.3801   31.7784 H   0  0  0  0  0  0  0  0  0  0  0  0
   -9.3480  -11.1233   32.2270 H   0  0  0  0  0  0  0  0  0  0  0  0
   -9.7861  -13.5349   32.7202 H   0  0  0  0  0  0  0  0  0  0  0  0
   -9.9492  -15.7084   32.7559 H   0  0  0  0  0  0  0  0  0  0  0  0
   -8.9631  -17.4070   33.8947 H   0  0  0  0  0  0  0  0  0  0  0  0
   -8.7454  -16.5079   35.3824 H   0  0  0  0  0  0  0  0  0  0  0  0
  -10.3578  -17.5844   36.3267 H   0  0  0  0  0  0  0  0  0  0  0  0
  -10.5162  -18.5316   34.8875 H   0  0  0  0  0  0  0  0  0  0  0  0
  -12.3454  -16.6343   35.9275 H   0  0  0  0  0  0  0  0  0  0  0  0
  -12.5410  -17.4528   34.4350 H   0  0  0  0  0  0  0  0  0  0  0  0
  -11.7692  -14.9164   35.1466 H   0  0  0  0  0  0  0  0  0  0  0  0
  -12.2251  -15.2745   33.4713 H   0  0  0  0  0  0  0  0  0  0  0  0
   -6.2175  -13.2600   33.1340 H   0  0  0  0  0  0  0  0  0  0  0  0
   -6.7958  -13.0853   31.6170 H   0  0  0  0  0  0  0  0  0  0  0  0
  1  2  2  0
  2  3  1  0
  3  4  1  0
  4  5  1  0
  5  6  2  0
  6  7  1  0
  7  8  2  0
  8  9  1  0
  9 10  2  0
  9 11  1  0
 11 12  1  0
 12 13  1  0
  2 14  1  0
 14 15  1  0
 15 16  1  0
 16 17  1  0
 17 18  1  0
 18 19  1  0
 19 20  1  0
 20 21  1  0
 21 22  1  0
 17 23  1  0
 10  5  1  0
 23 15  1  0
 13  8  1  0
 22 18  1  0
  3 24  1  0
  3 25  1  0
  4 26  1  0
  4 27  1  0
  6 28  1  0
  7 29  1  0
 10 30  1  0
 12 31  1  0
 12 32  1  0
 14 33  1  0
 15 34  1  0
 16 35  1  0
 16 36  1  0
 17 37  1  0
 18 38  1  0
 19 39  1  0
 19 40  1  0
 20 41  1  0
 20 42  1  0
 21 43  1  0
 21 44  1  0
 22 45  1  0
 22 46  1  0
 23 47  1  0
 23 48  1  0
M  END
>  <Energy>  (569) 
520.04763541443458

>  <compound_id>  (569) 
57167

>  <target_id>  (569) 
1

>  <reference_id>  (569) 
13

>  <inspiration_ids>  (569) 
[13, 3]

>  <energy_score>  (569) 
461.19639180191257

>  <distance_score>  (569) 
8.446465430596778

>  <path>  (569) 
/opt/xchem-fragalysis-2/maxwin/BulkDock/SCRATCH/511025/C57167-P13/C57167-P13.minimised.mol

>  <scratch_subdir>  (569) 
/opt/xchem-fragalysis-2/maxwin/BulkDock/SCRATCH/511025/C57167-P13

>  <fragmenstein_runtime>  (569) 
45.772775411605835

>  <fragmenstein_outcome>  (569) 
too moved

>  <fragmenstein_mode>  (569) 
expansion

>  <fragmenstein_error>  (569) 


$$$$
C57167-P3
     RDKit          3D

 48 51  0  0  0  0  0  0  0  0999 V2000
   -2.7805  -11.0409   31.4001 O   0  0  0  0  0  0  0  0  0  0  0  0
   -3.6531  -10.3778   31.8954 C   0  0  0  0  0  0  0  0  0  0  0  0
   -3.7716   -8.4121   32.1914 C   0  0  0  0  0  0  0  0  0  0  0  0
   -3.3084   -6.6464   31.5640 C   0  0  0  0  0  0  0  0  0  0  0  0
   -3.2190   -5.5166   30.4329 C   0  0  0  0  0  0  0  0  0  0  0  0
   -2.9992   -4.1837   30.9375 C   0  0  0  0  0  0  0  0  0  0  0  0
   -2.5700   -3.0920   30.1663 C   0  0  0  0  0  0  0  0  0  0  0  0
   -2.3743   -3.3188   28.8374 C   0  0  0  0  0  0  0  0  0  0  0  0
   -2.6332   -4.5573   28.2970 C   0  0  0  0  0  0  0  0  0  0  0  0
   -3.0722   -5.6569   29.0526 C   0  0  0  0  0  0  0  0  0  0  0  0
   -2.3587   -4.5679   26.9570 O   0  0  0  0  0  0  0  0  0  0  0  0
   -1.6632   -3.3005   26.8245 C   0  0  0  0  0  0  0  0  0  0  0  0
   -1.9331   -2.4138   27.9253 O   0  0  0  0  0  0  0  0  0  0  0  0
   -4.9170  -10.7122   32.3311 N   0  0  0  0  0  0  0  0  0  0  0  0
   -5.9403  -12.3695   32.2051 C   0  0  0  0  0  0  0  0  0  0  0  0
   -7.3026  -12.9786   31.7038 C   0  0  0  0  0  0  0  0  0  0  0  0
   -7.8009  -13.6187   33.0619 C   0  0  0  0  0  0  0  0  0  0  0  0
   -9.1286  -13.3885   33.8499 C   0  0  0  0  0  0  0  0  0  0  0  0
   -8.9374  -13.1575   35.3684 C   0  0  0  0  0  0  0  0  0  0  0  0
  -10.2806  -13.4192   36.0685 C   0  0  0  0  0  0  0  0  0  0  0  0
  -11.0994  -14.2776   35.1310 C   0  0  0  0  0  0  0  0  0  0  0  0
  -10.4411  -14.1548   33.7583 C   0  0  0  0  0  0  0  0  0  0  0  0
   -6.9157  -12.5266   33.5756 C   0  0  0  0  0  0  0  0  0  0  0  0
   -2.9867   -8.5985   31.4377 H   0  0  0  0  0  0  0  0  0  0  0  0
   -3.7751   -8.2284   33.2477 H   0  0  0  0  0  0  0  0  0  0  0  0
   -2.2315   -6.6026   31.7096 H   0  0  0  0  0  0  0  0  0  0  0  0
   -4.0778   -6.1397   32.1593 H   0  0  0  0  0  0  0  0  0  0  0  0
   -3.1044   -4.0028   32.0023 H   0  0  0  0  0  0  0  0  0  0  0  0
   -2.3878   -2.1173   30.6023 H   0  0  0  0  0  0  0  0  0  0  0  0
   -3.2105   -6.6009   28.5518 H   0  0  0  0  0  0  0  0  0  0  0  0
   -1.9648   -2.8180   25.8917 H   0  0  0  0  0  0  0  0  0  0  0  0
   -0.5860   -3.4762   26.7674 H   0  0  0  0  0  0  0  0  0  0  0  0
   -5.2886   -9.9709   32.7344 H   0  0  0  0  0  0  0  0  0  0  0  0
   -5.3195  -13.0378   31.5870 H   0  0  0  0  0  0  0  0  0  0  0  0
   -8.0022  -12.3968   31.1209 H   0  0  0  0  0  0  0  0  0  0  0  0
   -7.0201  -13.9014   31.1863 H   0  0  0  0  0  0  0  0  0  0  0  0
   -7.3909  -14.6199   33.2397 H   0  0  0  0  0  0  0  0  0  0  0  0
   -9.4329  -12.4933   33.3580 H   0  0  0  0  0  0  0  0  0  0  0  0
   -8.6285  -12.1328   35.5972 H   0  0  0  0  0  0  0  0  0  0  0  0
   -8.1084  -13.7571   35.7392 H   0  0  0  0  0  0  0  0  0  0  0  0
  -10.1869  -13.8461   37.0707 H   0  0  0  0  0  0  0  0  0  0  0  0
  -10.8085  -12.4818   36.2624 H   0  0  0  0  0  0  0  0  0  0  0  0
  -11.1701  -15.3132   35.4598 H   0  0  0  0  0  0  0  0  0  0  0  0
  -12.1375  -13.9238   35.0986 H   0  0  0  0  0  0  0  0  0  0  0  0
  -11.1464  -13.4971   33.2396 H   0  0  0  0  0  0  0  0  0  0  0  0
  -10.3936  -15.1131   33.2469 H   0  0  0  0  0  0  0  0  0  0  0  0
   -7.4994  -11.6302   33.7532 H   0  0  0  0  0  0  0  0  0  0  0  0
   -6.5080  -12.8561   34.5119 H   0  0  0  0  0  0  0  0  0  0  0  0
  1  2  2  0
  2  3  1  0
  3  4  1  0
  4  5  1  0
  5  6  2  0
  6  7  1  0
  7  8  2  0
  8  9  1  0
  9 10  2  0
  9 11  1  0
 11 12  1  0
 12 13  1  0
  2 14  1  0
 14 15  1  0
 15 16  1  0
 16 17  1  0
 17 18  1  0
 18 19  1  0
 19 20  1  0
 20 21  1  0
 21 22  1  0
 17 23  1  0
 10  5  1  0
 23 15  1  0
 13  8  1  0
 22 18  1  0
  3 24  1  0
  3 25  1  0
  4 26  1  0
  4 27  1  0
  6 28  1  0
  7 29  1  0
 10 30  1  0
 12 31  1  0
 12 32  1  0
 14 33  1  0
 15 34  1  0
 16 35  1  0
 16 36  1  0
 17 37  1  0
 18 38  1  0
 19 39  1  0
 19 40  1  0
 20 41  1  0
 20 42  1  0
 21 43  1  0
 21 44  1  0
 22 45  1  0
 22 46  1  0
 23 47  1  0
 23 48  1  0
M  END
>  <Energy>  (570) 
365.060207600193

>  <compound_id>  (570) 
57167

>  <target_id>  (570) 
1

>  <reference_id>  (570) 
3

>  <inspiration_ids>  (570) 
[13, 3]

>  <energy_score>  (570) 
306.20896398767763

>  <distance_score>  (570) 
7.781831707598004

>  <path>  (570) 
/opt/xchem-fragalysis-2/maxwin/BulkDock/SCRATCH/511025/C57167-P3/C57167-P3.minimised.mol

>  <scratch_subdir>  (570) 
/opt/xchem-fragalysis-2/maxwin/BulkDock/SCRATCH/511025/C57167-P3

>  <fragmenstein_runtime>  (570) 
37.74863314628601

>  <fragmenstein_outcome>  (570) 
too moved

>  <fragmenstein_mode>  (570) 
expansion

>  <fragmenstein_error>  (570) 


$$$$
C57168-P13
     RDKit          3D

 42 45  0  0  0  0  0  0  0  0999 V2000
   -5.1005   -8.2042   27.4345 O   0  0  0  0  0  0  0  0  0  0  0  0
   -5.1357   -8.2273   28.6154 C   0  0  0  0  0  0  0  0  0  0  0  0
   -3.6462   -7.2289   29.3222 C   0  0  0  0  0  0  0  0  0  0  0  0
   -1.8035   -7.1975   29.9305 C   0  0  0  0  0  0  0  0  0  0  0  0
   -0.8642   -5.9000   30.3147 C   0  0  0  0  0  0  0  0  0  0  0  0
   -0.2922   -5.7777   31.5970 C   0  0  0  0  0  0  0  0  0  0  0  0
    0.3160   -4.5668   32.0221 C   0  0  0  0  0  0  0  0  0  0  0  0
    0.3501   -3.4810   31.1657 C   0  0  0  0  0  0  0  0  0  0  0  0
   -0.1516   -3.5815   29.9066 C   0  0  0  0  0  0  0  0  0  0  0  0
   -0.7257   -4.7558   29.4682 C   0  0  0  0  0  0  0  0  0  0  0  0
   -0.0836   -2.4202   29.2056 O   0  0  0  0  0  0  0  0  0  0  0  0
    0.5110   -1.5525   30.1845 C   0  0  0  0  0  0  0  0  0  0  0  0
    0.8129   -2.2292   31.4299 O   0  0  0  0  0  0  0  0  0  0  0  0
   -6.0474   -9.1335   29.6221 N   0  0  0  0  0  0  0  0  0  0  0  0
   -6.9012  -10.3101   29.3203 C   0  0  0  0  0  0  0  0  0  0  0  0
   -5.5138  -11.7872   29.4821 C   0  0  0  0  0  0  0  0  0  0  0  0
   -6.0002  -13.4520   29.8537 C   0  0  0  0  0  0  0  0  0  0  0  0
   -6.8801  -13.4106   28.6749 N   0  0  0  0  0  0  0  0  0  0  0  0
   -8.1361  -14.3087   28.3432 C   0  0  0  0  0  0  0  0  0  0  0  0
   -8.5798  -14.0583   27.0182 C   0  0  0  0  0  0  0  0  0  0  0  0
   -8.8525  -15.4685   26.5566 C   0  0  0  0  0  0  0  0  0  0  0  0
   -8.1946  -15.9571   27.8092 C   0  0  0  0  0  0  0  0  0  0  0  0
   -6.2346  -11.7882   28.4125 N   0  0  0  0  0  0  0  0  0  0  0  0
   -3.0884   -7.3511   28.3595 H   0  0  0  0  0  0  0  0  0  0  0  0
   -3.5904   -7.8523   30.2363 H   0  0  0  0  0  0  0  0  0  0  0  0
   -1.8334   -7.7158   30.9060 H   0  0  0  0  0  0  0  0  0  0  0  0
   -1.2129   -7.8445   29.2770 H   0  0  0  0  0  0  0  0  0  0  0  0
   -0.3532   -6.5995   32.3072 H   0  0  0  0  0  0  0  0  0  0  0  0
    0.7196   -4.4799   33.0265 H   0  0  0  0  0  0  0  0  0  0  0  0
   -1.1879   -4.6996   28.4916 H   0  0  0  0  0  0  0  0  0  0  0  0
   -0.1785   -0.7264   30.3939 H   0  0  0  0  0  0  0  0  0  0  0  0
    1.4418   -1.1424   29.7766 H   0  0  0  0  0  0  0  0  0  0  0  0
   -5.8854   -8.8342   30.6098 H   0  0  0  0  0  0  0  0  0  0  0  0
   -4.4030  -11.7531   29.5225 H   0  0  0  0  0  0  0  0  0  0  0  0
   -6.4477  -13.8806   30.7458 H   0  0  0  0  0  0  0  0  0  0  0  0
   -8.9042  -14.1048   29.0578 H   0  0  0  0  0  0  0  0  0  0  0  0
   -7.6645  -13.6481   26.5707 H   0  0  0  0  0  0  0  0  0  0  0  0
   -9.4686  -13.4490   27.0943 H   0  0  0  0  0  0  0  0  0  0  0  0
   -8.4005  -15.6494   25.5953 H   0  0  0  0  0  0  0  0  0  0  0  0
   -9.8969  -15.7878   26.5146 H   0  0  0  0  0  0  0  0  0  0  0  0
   -8.7485  -16.8780   27.9266 H   0  0  0  0  0  0  0  0  0  0  0  0
   -7.3667  -16.5653   28.1038 H   0  0  0  0  0  0  0  0  0  0  0  0
  1  2  2  0
  2  3  1  0
  3  4  1  0
  4  5  1  0
  5  6  2  0
  6  7  1  0
  7  8  2  0
  8  9  1  0
  9 10  2  0
  9 11  1  0
 11 12  1  0
 12 13  1  0
  2 14  1  0
 14 15  1  0
 15 16  1  0
 16 17  2  0
 17 18  1  0
 18 19  1  0
 19 20  1  0
 20 21  1  0
 21 22  1  0
 18 23  1  0
 10  5  1  0
 23 15  2  0
 13  8  1  0
 22 19  1  0
  3 24  1  0
  3 25  1  0
  4 26  1  0
  4 27  1  0
  6 28  1  0
  7 29  1  0
 10 30  1  0
 12 31  1  0
 12 32  1  0
 14 33  1  0
 16 34  1  0
 17 35  1  0
 19 36  1  0
 20 37  1  0
 20 38  1  0
 21 39  1  0
 21 40  1  0
 22 41  1  0
 22 42  1  0
M  END
>  <Energy>  (571) 
789.51738584256373

>  <compound_id>  (571) 
57168

>  <target_id>  (571) 
1

>  <reference_id>  (571) 
13

>  <inspiration_ids>  (571) 
[13, 3]

>  <energy_score>  (571) 
758.3963564646755

>  <distance_score>  (571) 
7.4346781162962525

>  <path>  (571) 
/opt/xchem-fragalysis-2/maxwin/BulkDock/SCRATCH/511025/C57168-P13/C57168-P13.minimised.mol

>  <scratch_subdir>  (571) 
/opt/xchem-fragalysis-2/maxwin/BulkDock/SCRATCH/511025/C57168-P13

>  <fragmenstein_runtime>  (571) 
19.362760543823242

>  <fragmenstein_outcome>  (571) 
too moved

>  <fragmenstein_mode>  (571) 
expansion

>  <fragmenstein_error>  (571) 


$$$$
C57168-P3
     RDKit          3D

 42 45  0  0  0  0  0  0  0  0999 V2000
   -4.7140   -5.8454   21.6459 O   0  0  0  0  0  0  0  0  0  0  0  0
   -4.0716   -6.6855   21.0815 C   0  0  0  0  0  0  0  0  0  0  0  0
   -2.6048   -6.3001   20.7417 C   0  0  0  0  0  0  0  0  0  0  0  0
   -1.6611   -5.8607   21.9112 C   0  0  0  0  0  0  0  0  0  0  0  0
   -1.7751   -4.5305   22.6571 C   0  0  0  0  0  0  0  0  0  0  0  0
   -1.6544   -4.5062   24.0748 C   0  0  0  0  0  0  0  0  0  0  0  0
   -1.5707   -3.3099   24.8126 C   0  0  0  0  0  0  0  0  0  0  0  0
   -1.6138   -2.1273   24.1170 C   0  0  0  0  0  0  0  0  0  0  0  0
   -1.7044   -2.1222   22.7444 C   0  0  0  0  0  0  0  0  0  0  0  0
   -1.7883   -3.2936   21.9918 C   0  0  0  0  0  0  0  0  0  0  0  0
   -1.6998   -0.8530   22.2455 O   0  0  0  0  0  0  0  0  0  0  0  0
   -1.7764   -0.0852   23.4645 C   0  0  0  0  0  0  0  0  0  0  0  0
   -1.5697   -0.8776   24.6521 O   0  0  0  0  0  0  0  0  0  0  0  0
   -4.4563   -8.0021   20.5847 N   0  0  0  0  0  0  0  0  0  0  0  0
   -5.6466   -8.7026   20.6987 C   0  0  0  0  0  0  0  0  0  0  0  0
   -6.8503   -8.1561   21.2063 C   0  0  0  0  0  0  0  0  0  0  0  0
   -7.7506   -9.1904   21.2345 C   0  0  0  0  0  0  0  0  0  0  0  0
   -7.0966  -10.2879   20.7445 N   0  0  0  0  0  0  0  0  0  0  0  0
   -7.8656  -11.5414   20.4212 C   0  0  0  0  0  0  0  0  0  0  0  0
   -8.5396  -12.2233   21.6525 C   0  0  0  0  0  0  0  0  0  0  0  0
   -8.2395  -13.5760   20.9689 C   0  0  0  0  0  0  0  0  0  0  0  0
   -7.0739  -12.8555   20.2404 C   0  0  0  0  0  0  0  0  0  0  0  0
   -5.8078  -10.0018   20.3748 N   0  0  0  0  0  0  0  0  0  0  0  0
   -2.6594   -5.4966   19.9969 H   0  0  0  0  0  0  0  0  0  0  0  0
   -2.1240   -7.1485   20.2407 H   0  0  0  0  0  0  0  0  0  0  0  0
   -1.6177   -6.6855   22.6306 H   0  0  0  0  0  0  0  0  0  0  0  0
   -0.6496   -5.8406   21.4786 H   0  0  0  0  0  0  0  0  0  0  0  0
   -1.5407   -5.4392   24.6233 H   0  0  0  0  0  0  0  0  0  0  0  0
   -1.4413   -3.3274   25.8888 H   0  0  0  0  0  0  0  0  0  0  0  0
   -1.8488   -3.2300   20.9111 H   0  0  0  0  0  0  0  0  0  0  0  0
   -2.7616    0.3939   23.5228 H   0  0  0  0  0  0  0  0  0  0  0  0
   -1.0084    0.6954   23.4308 H   0  0  0  0  0  0  0  0  0  0  0  0
   -3.6369   -8.4758   20.2344 H   0  0  0  0  0  0  0  0  0  0  0  0
   -7.0284   -7.1435   21.5432 H   0  0  0  0  0  0  0  0  0  0  0  0
   -8.7820   -9.2356   21.5551 H   0  0  0  0  0  0  0  0  0  0  0  0
   -8.5681  -11.3591   19.5958 H   0  0  0  0  0  0  0  0  0  0  0  0
   -8.0275  -12.0807   22.6087 H   0  0  0  0  0  0  0  0  0  0  0  0
   -9.6011  -11.9990   21.7907 H   0  0  0  0  0  0  0  0  0  0  0  0
   -7.9671  -14.4041   21.6224 H   0  0  0  0  0  0  0  0  0  0  0  0
   -9.0361  -13.9103   20.2935 H   0  0  0  0  0  0  0  0  0  0  0  0
   -6.9211  -13.1666   19.2024 H   0  0  0  0  0  0  0  0  0  0  0  0
   -6.1094  -12.8991   20.7503 H   0  0  0  0  0  0  0  0  0  0  0  0
  1  2  2  0
  2  3  1  0
  3  4  1  0
  4  5  1  0
  5  6  2  0
  6  7  1  0
  7  8  2  0
  8  9  1  0
  9 10  2  0
  9 11  1  0
 11 12  1  0
 12 13  1  0
  2 14  1  0
 14 15  1  0
 15 16  1  0
 16 17  2  0
 17 18  1  0
 18 19  1  0
 19 20  1  0
 20 21  1  0
 21 22  1  0
 18 23  1  0
 10  5  1  0
 23 15  2  0
 13  8  1  0
 22 19  1  0
  3 24  1  0
  3 25  1  0
  4 26  1  0
  4 27  1  0
  6 28  1  0
  7 29  1  0
 10 30  1  0
 12 31  1  0
 12 32  1  0
 14 33  1  0
 16 34  1  0
 17 35  1  0
 19 36  1  0
 20 37  1  0
 20 38  1  0
 21 39  1  0
 21 40  1  0
 22 41  1  0
 22 42  1  0
M  END
>  <Energy>  (572) 
7.0698161157059545

>  <compound_id>  (572) 
57168

>  <target_id>  (572) 
1

>  <reference_id>  (572) 
3

>  <inspiration_ids>  (572) 
[13, 3]

>  <energy_score>  (572) 
-24.05121326217025

>  <distance_score>  (572) 
9.53177203836039

>  <path>  (572) 
/opt/xchem-fragalysis-2/maxwin/BulkDock/SCRATCH/511025/C57168-P3/C57168-P3.minimised.mol

>  <scratch_subdir>  (572) 
/opt/xchem-fragalysis-2/maxwin/BulkDock/SCRATCH/511025/C57168-P3

>  <fragmenstein_runtime>  (572) 
22.802381992340088

>  <fragmenstein_outcome>  (572) 
too moved

>  <fragmenstein_mode>  (572) 
expansion

>  <fragmenstein_error>  (572) 


$$$$
C44331-P13
     RDKit          3D

 55 59  0  0  0  0  0  0  0  0999 V2000
   -2.8131   -9.7202   31.1593 O   0  0  0  0  0  0  0  0  0  0  0  0
   -3.3323   -8.7436   31.5449 C   0  0  0  0  0  0  0  0  0  0  0  0
   -5.4089   -8.8768   31.2580 C   0  0  0  0  0  0  0  0  0  0  0  0
   -6.9226   -9.8151   29.9195 C   0  0  0  0  0  0  0  0  0  0  0  0
   -5.7645   -8.3295   28.8913 C   0  0  0  0  0  0  0  0  0  0  0  0
   -5.3393   -8.4322   27.5896 C   0  0  0  0  0  0  0  0  0  0  0  0
   -3.7131   -8.1667   26.5384 C   0  0  0  0  0  0  0  0  0  0  0  0
   -2.5663   -7.6021   26.3168 C   0  0  0  0  0  0  0  0  0  0  0  0
   -2.6635   -7.1359   27.5369 C   0  0  0  0  0  0  0  0  0  0  0  0
   -4.0396   -7.6386   28.7348 C   0  0  0  0  0  0  0  0  0  0  0  0
   -2.1440   -5.7338   26.7089 O   0  0  0  0  0  0  0  0  0  0  0  0
   -1.7557   -5.9967   25.1588 C   0  0  0  0  0  0  0  0  0  0  0  0
   -2.2473   -7.2934   25.0393 O   0  0  0  0  0  0  0  0  0  0  0  0
   -8.9384  -10.9217   30.0727 C   0  0  0  0  0  0  0  0  0  0  0  0
   -9.1556  -12.9585   29.0314 C   0  0  0  0  0  0  0  0  0  0  0  0
   -9.4119  -14.2109   30.5071 N   0  0  0  0  0  0  0  0  0  0  0  0
   -9.6076  -13.3118   32.2937 C   0  0  0  0  0  0  0  0  0  0  0  0
   -9.4973  -14.2671   33.1888 C   0  0  0  0  0  0  0  0  0  0  0  0
   -8.3730  -14.3667   32.4482 C   0  0  0  0  0  0  0  0  0  0  0  0
   -7.0785  -13.3447   32.0693 C   0  0  0  0  0  0  0  0  0  0  0  0
   -7.3775  -12.0464   32.4538 C   0  0  0  0  0  0  0  0  0  0  0  0
   -8.9186  -11.5437   32.0523 C   0  0  0  0  0  0  0  0  0  0  0  0
   -2.6015   -7.5660   32.0611 N   0  0  0  0  0  0  0  0  0  0  0  0
   -1.1860   -7.3313   32.3158 C   0  0  0  0  0  0  0  0  0  0  0  0
   -0.4016   -7.0449   31.0249 C   0  0  0  0  0  0  0  0  0  0  0  0
    0.1493   -5.6232   30.9724 C   0  0  0  0  0  0  0  0  0  0  0  0
    1.0361   -5.3077   32.1772 C   0  0  0  0  0  0  0  0  0  0  0  0
    0.5324   -5.9192   33.4862 C   0  0  0  0  0  0  0  0  0  0  0  0
   -0.9433   -6.2905   33.4109 C   0  0  0  0  0  0  0  0  0  0  0  0
   -4.7168   -8.5464   30.5703 H   0  0  0  0  0  0  0  0  0  0  0  0
   -5.3817   -9.7201   31.9137 H   0  0  0  0  0  0  0  0  0  0  0  0
   -7.4713   -9.3854   29.0589 H   0  0  0  0  0  0  0  0  0  0  0  0
   -6.1996   -9.0847   27.1898 H   0  0  0  0  0  0  0  0  0  0  0  0
   -3.4874   -8.6081   25.5885 H   0  0  0  0  0  0  0  0  0  0  0  0
   -3.4064   -7.4739   29.6224 H   0  0  0  0  0  0  0  0  0  0  0  0
   -0.7899   -5.5796   24.8996 H   0  0  0  0  0  0  0  0  0  0  0  0
   -2.1596   -5.3554   24.3177 H   0  0  0  0  0  0  0  0  0  0  0  0
   -8.4508  -13.5949   28.3923 H   0  0  0  0  0  0  0  0  0  0  0  0
  -10.3142  -14.5416   30.2245 H   0  0  0  0  0  0  0  0  0  0  0  0
  -10.1261  -15.1433   33.3093 H   0  0  0  0  0  0  0  0  0  0  0  0
   -8.2723  -15.3710   32.1866 H   0  0  0  0  0  0  0  0  0  0  0  0
   -6.4632  -13.7468   31.2715 H   0  0  0  0  0  0  0  0  0  0  0  0
   -7.6522  -12.1395   33.4757 H   0  0  0  0  0  0  0  0  0  0  0  0
   -3.2384   -6.8743   32.2319 H   0  0  0  0  0  0  0  0  0  0  0  0
   -0.8206   -8.2991   32.6853 H   0  0  0  0  0  0  0  0  0  0  0  0
    0.4466   -7.7401   30.9682 H   0  0  0  0  0  0  0  0  0  0  0  0
   -1.0109   -7.2411   30.1386 H   0  0  0  0  0  0  0  0  0  0  0  0
   -0.6841   -4.9110   30.9399 H   0  0  0  0  0  0  0  0  0  0  0  0
    0.7219   -5.4729   30.0508 H   0  0  0  0  0  0  0  0  0  0  0  0
    1.1105   -4.2185   32.2822 H   0  0  0  0  0  0  0  0  0  0  0  0
    2.0562   -5.6652   31.9905 H   0  0  0  0  0  0  0  0  0  0  0  0
    0.7049   -5.2179   34.3106 H   0  0  0  0  0  0  0  0  0  0  0  0
    1.1188   -6.8178   33.7155 H   0  0  0  0  0  0  0  0  0  0  0  0
   -1.5185   -5.3813   33.2148 H   0  0  0  0  0  0  0  0  0  0  0  0
   -1.2861   -6.6793   34.3768 H   0  0  0  0  0  0  0  0  0  0  0  0
  1  2  2  0
  2  3  1  0
  3  4  1  0
  4  5  1  0
  5  6  2  0
  6  7  1  0
  7  8  2  0
  8  9  1  0
  9 10  2  0
  9 11  1  0
 11 12  1  0
 12 13  1  0
  4 14  1  0
 14 15  2  0
 15 16  1  0
 16 17  1  0
 17 18  2  0
 18 19  1  0
 19 20  2  0
 20 21  1  0
 21 22  2  0
  2 23  1  0
 23 24  1  0
 24 25  1  0
 25 26  1  0
 26 27  1  0
 27 28  1  0
 28 29  1  0
 10  5  1  0
 22 14  1  0
 29 24  1  0
 13  8  1  0
 22 17  1  0
  3 30  1  0
  3 31  1  0
  4 32  1  0
  6 33  1  0
  7 34  1  0
 10 35  1  0
 12 36  1  0
 12 37  1  0
 15 38  1  0
 16 39  1  0
 18 40  1  0
 19 41  1  0
 20 42  1  0
 21 43  1  0
 23 44  1  0
 24 45  1  0
 25 46  1  0
 25 47  1  0
 26 48  1  0
 26 49  1  0
 27 50  1  0
 27 51  1  0
 28 52  1  0
 28 53  1  0
 29 54  1  0
 29 55  1  0
M  END
>  <Energy>  (573) 
2462.1639500788306

>  <compound_id>  (573) 
44331

>  <target_id>  (573) 
1

>  <reference_id>  (573) 
13

>  <inspiration_ids>  (573) 
[13, 3]

>  <energy_score>  (573) 
2380.349241898661

>  <distance_score>  (573) 
8.592736630796088

>  <path>  (573) 
/opt/xchem-fragalysis-2/maxwin/BulkDock/SCRATCH/511025/C44331-P13/C44331-P13.minimised.mol

>  <scratch_subdir>  (573) 
/opt/xchem-fragalysis-2/maxwin/BulkDock/SCRATCH/511025/C44331-P13

>  <fragmenstein_runtime>  (573) 
38.86065936088562

>  <fragmenstein_outcome>  (573) 
too moved

>  <fragmenstein_mode>  (573) 
expansion

>  <fragmenstein_error>  (573) 


$$$$
C44331-P3
     RDKit          3D

 55 59  0  0  0  0  0  0  0  0999 V2000
   -3.2221   -2.5949   31.6235 O   0  0  0  0  0  0  0  0  0  0  0  0
   -2.4228   -3.2104   30.9768 C   0  0  0  0  0  0  0  0  0  0  0  0
   -2.7981   -4.7551   30.8688 C   0  0  0  0  0  0  0  0  0  0  0  0
   -2.5991   -5.8960   29.8129 C   0  0  0  0  0  0  0  0  0  0  0  0
   -2.2705   -5.0645   28.4110 C   0  0  0  0  0  0  0  0  0  0  0  0
   -1.8443   -5.4647   27.1301 C   0  0  0  0  0  0  0  0  0  0  0  0
   -1.6207   -4.5955   26.0123 C   0  0  0  0  0  0  0  0  0  0  0  0
   -1.7014   -3.2509   26.1692 C   0  0  0  0  0  0  0  0  0  0  0  0
   -2.2804   -2.8089   27.2980 C   0  0  0  0  0  0  0  0  0  0  0  0
   -2.6654   -3.6977   28.3063 C   0  0  0  0  0  0  0  0  0  0  0  0
   -2.5455   -1.4736   27.2436 O   0  0  0  0  0  0  0  0  0  0  0  0
   -1.8765   -1.1163   26.0135 C   0  0  0  0  0  0  0  0  0  0  0  0
   -1.4422   -2.2725   25.2722 O   0  0  0  0  0  0  0  0  0  0  0  0
   -2.0236   -7.4105   30.7937 C   0  0  0  0  0  0  0  0  0  0  0  0
   -2.1947   -7.6338   32.1188 C   0  0  0  0  0  0  0  0  0  0  0  0
   -2.5070   -8.9559   32.4808 N   0  0  0  0  0  0  0  0  0  0  0  0
   -1.4996   -9.7180   31.9730 C   0  0  0  0  0  0  0  0  0  0  0  0
   -0.8713  -10.8928   32.3945 C   0  0  0  0  0  0  0  0  0  0  0  0
   -0.2168  -11.6941   31.4719 C   0  0  0  0  0  0  0  0  0  0  0  0
   -0.1094  -11.2488   30.1762 C   0  0  0  0  0  0  0  0  0  0  0  0
   -0.5614   -9.9535   29.8425 C   0  0  0  0  0  0  0  0  0  0  0  0
   -1.2412   -9.0583   30.7842 C   0  0  0  0  0  0  0  0  0  0  0  0
   -1.1702   -2.7968   30.3880 N   0  0  0  0  0  0  0  0  0  0  0  0
   -0.5187   -1.4875   30.3379 C   0  0  0  0  0  0  0  0  0  0  0  0
    0.5683   -1.3838   29.2570 C   0  0  0  0  0  0  0  0  0  0  0  0
    0.9682    0.0556   28.9140 C   0  0  0  0  0  0  0  0  0  0  0  0
    0.7087    1.0148   30.0654 C   0  0  0  0  0  0  0  0  0  0  0  0
   -0.7680    1.0326   30.4603 C   0  0  0  0  0  0  0  0  0  0  0  0
   -1.4810   -0.3031   30.2232 C   0  0  0  0  0  0  0  0  0  0  0  0
   -3.8330   -4.8416   31.2306 H   0  0  0  0  0  0  0  0  0  0  0  0
   -2.1682   -5.0983   31.6410 H   0  0  0  0  0  0  0  0  0  0  0  0
   -3.5959   -6.2239   29.5159 H   0  0  0  0  0  0  0  0  0  0  0  0
   -1.7020   -6.5184   26.8588 H   0  0  0  0  0  0  0  0  0  0  0  0
   -1.3387   -5.0112   25.0484 H   0  0  0  0  0  0  0  0  0  0  0  0
   -3.3028   -3.2197   29.0260 H   0  0  0  0  0  0  0  0  0  0  0  0
   -2.5718   -0.5404   25.3928 H   0  0  0  0  0  0  0  0  0  0  0  0
   -1.0073   -0.4905   26.2451 H   0  0  0  0  0  0  0  0  0  0  0  0
   -1.2499   -7.4626   32.5727 H   0  0  0  0  0  0  0  0  0  0  0  0
   -2.9994   -9.2178   33.3180 H   0  0  0  0  0  0  0  0  0  0  0  0
   -0.8059  -11.1113   33.4484 H   0  0  0  0  0  0  0  0  0  0  0  0
    0.2315  -12.6333   31.7786 H   0  0  0  0  0  0  0  0  0  0  0  0
    0.3723  -11.8634   29.4214 H   0  0  0  0  0  0  0  0  0  0  0  0
   -0.4611   -9.6885   28.7947 H   0  0  0  0  0  0  0  0  0  0  0  0
   -0.7127   -3.6066   29.9769 H   0  0  0  0  0  0  0  0  0  0  0  0
   -0.0047   -1.4073   31.2943 H   0  0  0  0  0  0  0  0  0  0  0  0
    1.4573   -1.9239   29.6053 H   0  0  0  0  0  0  0  0  0  0  0  0
    0.2483   -1.8696   28.3308 H   0  0  0  0  0  0  0  0  0  0  0  0
    0.3997    0.3907   28.0380 H   0  0  0  0  0  0  0  0  0  0  0  0
    2.0252    0.0841   28.6257 H   0  0  0  0  0  0  0  0  0  0  0  0
    1.3140    0.7128   30.9295 H   0  0  0  0  0  0  0  0  0  0  0  0
    1.0310    2.0275   29.7984 H   0  0  0  0  0  0  0  0  0  0  0  0
   -1.2937    1.8148   29.8994 H   0  0  0  0  0  0  0  0  0  0  0  0
   -0.8416    1.3132   31.5173 H   0  0  0  0  0  0  0  0  0  0  0  0
   -1.9307   -0.2847   29.2279 H   0  0  0  0  0  0  0  0  0  0  0  0
   -2.3186   -0.3853   30.9168 H   0  0  0  0  0  0  0  0  0  0  0  0
  1  2  2  0
  2  3  1  0
  3  4  1  0
  4  5  1  0
  5  6  2  0
  6  7  1  0
  7  8  2  0
  8  9  1  0
  9 10  2  0
  9 11  1  0
 11 12  1  0
 12 13  1  0
  4 14  1  0
 14 15  2  0
 15 16  1  0
 16 17  1  0
 17 18  2  0
 18 19  1  0
 19 20  2  0
 20 21  1  0
 21 22  2  0
  2 23  1  0
 23 24  1  0
 24 25  1  0
 25 26  1  0
 26 27  1  0
 27 28  1  0
 28 29  1  0
 10  5  1  0
 22 14  1  0
 29 24  1  0
 13  8  1  0
 22 17  1  0
  3 30  1  0
  3 31  1  0
  4 32  1  0
  6 33  1  0
  7 34  1  0
 10 35  1  0
 12 36  1  0
 12 37  1  0
 15 38  1  0
 16 39  1  0
 18 40  1  0
 19 41  1  0
 20 42  1  0
 21 43  1  0
 23 44  1  0
 24 45  1  0
 25 46  1  0
 25 47  1  0
 26 48  1  0
 26 49  1  0
 27 50  1  0
 27 51  1  0
 28 52  1  0
 28 53  1  0
 29 54  1  0
 29 55  1  0
M  END
>  <Energy>  (574) 
309.9580582401116

>  <compound_id>  (574) 
44331

>  <target_id>  (574) 
1

>  <reference_id>  (574) 
3

>  <inspiration_ids>  (574) 
[13, 3]

>  <energy_score>  (574) 
228.14335005992058

>  <distance_score>  (574) 
9.074249084211745

>  <path>  (574) 
/opt/xchem-fragalysis-2/maxwin/BulkDock/SCRATCH/511025/C44331-P3/C44331-P3.minimised.mol

>  <scratch_subdir>  (574) 
/opt/xchem-fragalysis-2/maxwin/BulkDock/SCRATCH/511025/C44331-P3

>  <fragmenstein_runtime>  (574) 
32.63619303703308

>  <fragmenstein_outcome>  (574) 
too moved

>  <fragmenstein_mode>  (574) 
expansion

>  <fragmenstein_error>  (574) 


$$$$
C37520-P51
     RDKit          3D

 44 47  0  0  0  0  0  0  0  0999 V2000
  -14.5648  -15.7569   18.5317 O   0  0  0  0  0  0  0  0  0  0  0  0
  -13.6994  -15.1078   18.7275 C   0  0  0  0  0  0  0  0  0  0  0  0
  -14.1493  -13.2302   17.9552 C   0  0  0  0  0  0  0  0  0  0  0  0
  -13.6233  -11.3350   17.1219 N   0  0  0  0  0  0  0  0  0  0  0  0
  -12.5915  -11.2233   16.3865 C   0  0  0  0  0  0  0  0  0  0  0  0
  -11.4732  -11.7085   16.7050 O   0  0  0  0  0  0  0  0  0  0  0  0
  -12.6419  -10.2946   15.2982 N   0  0  0  0  0  0  0  0  0  0  0  0
  -13.6307   -9.6074   14.6479 C   0  0  0  0  0  0  0  0  0  0  0  0
  -14.0554   -9.9969   13.1805 C   0  0  0  0  0  0  0  0  0  0  0  0
  -13.5439   -9.0662   12.1564 C   0  0  0  0  0  0  0  0  0  0  0  0
  -13.8777   -7.8330   12.8707 C   0  0  0  0  0  0  0  0  0  0  0  0
  -14.4397   -6.7291   12.2155 C   0  0  0  0  0  0  0  0  0  0  0  0
  -14.8393   -5.6477   12.9661 C   0  0  0  0  0  0  0  0  0  0  0  0
  -14.5034   -5.6291   14.3022 C   0  0  0  0  0  0  0  0  0  0  0  0
  -13.9470   -6.7661   14.9320 C   0  0  0  0  0  0  0  0  0  0  0  0
  -13.7318   -7.9868   14.2704 C   0  0  0  0  0  0  0  0  0  0  0  0
  -14.4033  -10.3864   15.7524 C   0  0  0  0  0  0  0  0  0  0  0  0
  -15.5470   -9.7964   15.5238 O   0  0  0  0  0  0  0  0  0  0  0  0
  -12.2520  -16.1837   19.5018 N   0  0  0  0  0  0  0  0  0  0  0  0
  -12.0489  -18.2965   19.8075 C   0  0  0  0  0  0  0  0  0  0  0  0
  -11.6837  -20.1189   20.8330 C   0  0  0  0  0  0  0  0  0  0  0  0
  -11.4245  -20.6236   22.2328 C   0  0  0  0  0  0  0  0  0  0  0  0
  -11.5623  -21.9252   22.8298 C   0  0  0  0  0  0  0  0  0  0  0  0
  -11.7312  -23.0000   22.0423 C   0  0  0  0  0  0  0  0  0  0  0  0
  -11.6849  -22.6519   20.7367 C   0  0  0  0  0  0  0  0  0  0  0  0
  -11.6354  -21.3411   20.2242 N   0  0  0  0  0  0  0  0  0  0  0  0
  -14.4708  -13.8132   17.0048 H   0  0  0  0  0  0  0  0  0  0  0  0
  -15.0875  -13.2349   18.4292 H   0  0  0  0  0  0  0  0  0  0  0  0
  -11.7333  -10.2294   14.8879 H   0  0  0  0  0  0  0  0  0  0  0  0
  -15.1568   -9.9790   13.0933 H   0  0  0  0  0  0  0  0  0  0  0  0
  -13.6467  -10.9032   12.7504 H   0  0  0  0  0  0  0  0  0  0  0  0
  -14.0520   -9.1848   11.1944 H   0  0  0  0  0  0  0  0  0  0  0  0
  -12.4814   -9.2819   12.0600 H   0  0  0  0  0  0  0  0  0  0  0  0
  -14.6428   -6.7656   11.1507 H   0  0  0  0  0  0  0  0  0  0  0  0
  -15.3761   -4.8141   12.5292 H   0  0  0  0  0  0  0  0  0  0  0  0
  -14.7334   -4.7509   14.9033 H   0  0  0  0  0  0  0  0  0  0  0  0
  -13.8138   -6.5551   15.9805 H   0  0  0  0  0  0  0  0  0  0  0  0
  -11.5135  -15.5772   19.7496 H   0  0  0  0  0  0  0  0  0  0  0  0
  -12.7565  -19.0071   19.2323 H   0  0  0  0  0  0  0  0  0  0  0  0
  -11.4098  -18.2568   18.8147 H   0  0  0  0  0  0  0  0  0  0  0  0
  -10.9514  -20.1001   23.0431 H   0  0  0  0  0  0  0  0  0  0  0  0
  -11.4935  -22.0244   23.9046 H   0  0  0  0  0  0  0  0  0  0  0  0
  -11.8079  -24.0140   22.3961 H   0  0  0  0  0  0  0  0  0  0  0  0
  -11.7336  -23.4187   19.9739 H   0  0  0  0  0  0  0  0  0  0  0  0
  1  2  2  0
  2  3  1  0
  3  4  1  0
  4  5  1  0
  5  6  2  0
  5  7  1  0
  7  8  1  0
  8  9  1  0
  9 10  1  0
 10 11  1  0
 11 12  2  0
 12 13  1  0
 13 14  2  0
 14 15  1  0
 15 16  2  0
  8 17  1  0
 17 18  2  0
  2 19  1  0
 19 20  1  0
 20 21  1  0
 21 22  2  0
 22 23  1  0
 23 24  2  0
 24 25  1  0
 25 26  2  0
 17  4  1  0
 26 21  1  0
 16  8  1  0
 16 11  1  0
  3 27  1  0
  3 28  1  0
  7 29  1  0
  9 30  1  0
  9 31  1  0
 10 32  1  0
 10 33  1  0
 12 34  1  0
 13 35  1  0
 14 36  1  0
 15 37  1  0
 19 38  1  0
 20 39  1  0
 20 40  1  0
 22 41  1  0
 23 42  1  0
 24 43  1  0
 25 44  1  0
M  END
>  <Energy>  (575) 
1059.691282615644

>  <compound_id>  (575) 
37520

>  <target_id>  (575) 
1

>  <reference_id>  (575) 
51

>  <inspiration_ids>  (575) 
[51, 82]

>  <energy_score>  (575) 
1036.000494835661

>  <distance_score>  (575) 
11.99284741149956

>  <path>  (575) 
/opt/xchem-fragalysis-2/maxwin/BulkDock/SCRATCH/511025/C37520-P51/C37520-P51.minimised.mol

>  <scratch_subdir>  (575) 
/opt/xchem-fragalysis-2/maxwin/BulkDock/SCRATCH/511025/C37520-P51

>  <fragmenstein_runtime>  (575) 
32.475909948349

>  <fragmenstein_outcome>  (575) 
too moved

>  <fragmenstein_mode>  (575) 
expansion

>  <fragmenstein_error>  (575) 


$$$$
C37520-P82
     RDKit          3D

 44 47  0  0  0  0  0  0  0  0999 V2000
  -10.9826  -15.2375   19.5882 O   0  0  0  0  0  0  0  0  0  0  0  0
  -10.1427  -14.7311   18.8483 C   0  0  0  0  0  0  0  0  0  0  0  0
  -10.1949  -12.7978   17.7138 C   0  0  0  0  0  0  0  0  0  0  0  0
  -10.1586  -12.3011   15.5962 N   0  0  0  0  0  0  0  0  0  0  0  0
   -9.5192  -13.1823   14.4850 C   0  0  0  0  0  0  0  0  0  0  0  0
   -9.7291  -14.3254   14.0939 O   0  0  0  0  0  0  0  0  0  0  0  0
   -8.6834  -12.5509   13.5634 N   0  0  0  0  0  0  0  0  0  0  0  0
   -8.9653  -11.2388   13.2217 C   0  0  0  0  0  0  0  0  0  0  0  0
   -9.7615  -11.1382   11.8715 C   0  0  0  0  0  0  0  0  0  0  0  0
   -8.7557  -10.9879   10.7204 C   0  0  0  0  0  0  0  0  0  0  0  0
   -7.6824  -10.2104   11.3889 C   0  0  0  0  0  0  0  0  0  0  0  0
   -6.7095   -9.4493   10.7352 C   0  0  0  0  0  0  0  0  0  0  0  0
   -5.8483   -8.6759   11.5020 C   0  0  0  0  0  0  0  0  0  0  0  0
   -5.9841   -8.6705   12.8892 C   0  0  0  0  0  0  0  0  0  0  0  0
   -6.9554   -9.4689   13.5254 C   0  0  0  0  0  0  0  0  0  0  0  0
   -7.8023  -10.2941   12.7918 C   0  0  0  0  0  0  0  0  0  0  0  0
   -9.7387  -10.9749   14.5532 C   0  0  0  0  0  0  0  0  0  0  0  0
  -10.0587   -9.7828   14.5627 O   0  0  0  0  0  0  0  0  0  0  0  0
   -8.4938  -15.4393   18.1875 N   0  0  0  0  0  0  0  0  0  0  0  0
   -7.7913  -16.9727   18.3013 C   0  0  0  0  0  0  0  0  0  0  0  0
   -6.6276  -17.8739   19.2701 C   0  0  0  0  0  0  0  0  0  0  0  0
   -6.2462  -19.1323   18.7904 C   0  0  0  0  0  0  0  0  0  0  0  0
   -5.8917  -20.1523   19.6948 C   0  0  0  0  0  0  0  0  0  0  0  0
   -5.8969  -19.9171   21.0621 C   0  0  0  0  0  0  0  0  0  0  0  0
   -6.2081  -18.6418   21.4655 C   0  0  0  0  0  0  0  0  0  0  0  0
   -6.5391  -17.6340   20.6071 N   0  0  0  0  0  0  0  0  0  0  0  0
  -10.8777  -12.0441   18.0990 H   0  0  0  0  0  0  0  0  0  0  0  0
   -9.1785  -12.4825   18.0332 H   0  0  0  0  0  0  0  0  0  0  0  0
   -8.3762  -13.1772   12.8300 H   0  0  0  0  0  0  0  0  0  0  0  0
  -10.4142  -10.2573   11.8893 H   0  0  0  0  0  0  0  0  0  0  0  0
  -10.3939  -12.0037   11.6482 H   0  0  0  0  0  0  0  0  0  0  0  0
   -8.3749  -11.9608   10.3935 H   0  0  0  0  0  0  0  0  0  0  0  0
   -9.2015  -10.4566    9.8745 H   0  0  0  0  0  0  0  0  0  0  0  0
   -6.6583   -9.4182    9.6514 H   0  0  0  0  0  0  0  0  0  0  0  0
   -5.1113   -8.0375   11.0276 H   0  0  0  0  0  0  0  0  0  0  0  0
   -5.3342   -8.0389   13.4887 H   0  0  0  0  0  0  0  0  0  0  0  0
   -7.0224   -9.4117   14.6035 H   0  0  0  0  0  0  0  0  0  0  0  0
   -7.9810  -14.7470   17.6674 H   0  0  0  0  0  0  0  0  0  0  0  0
   -7.1486  -16.9141   17.3779 H   0  0  0  0  0  0  0  0  0  0  0  0
   -8.3637  -17.5969   17.5794 H   0  0  0  0  0  0  0  0  0  0  0  0
   -6.3130  -19.3616   17.7355 H   0  0  0  0  0  0  0  0  0  0  0  0
   -5.6509  -21.1427   19.3179 H   0  0  0  0  0  0  0  0  0  0  0  0
   -5.6618  -20.6927   21.7786 H   0  0  0  0  0  0  0  0  0  0  0  0
   -6.2236  -18.3747   22.5175 H   0  0  0  0  0  0  0  0  0  0  0  0
  1  2  2  0
  2  3  1  0
  3  4  1  0
  4  5  1  0
  5  6  2  0
  5  7  1  0
  7  8  1  0
  8  9  1  0
  9 10  1  0
 10 11  1  0
 11 12  2  0
 12 13  1  0
 13 14  2  0
 14 15  1  0
 15 16  2  0
  8 17  1  0
 17 18  2  0
  2 19  1  0
 19 20  1  0
 20 21  1  0
 21 22  2  0
 22 23  1  0
 23 24  2  0
 24 25  1  0
 25 26  2  0
 17  4  1  0
 26 21  1  0
 16  8  1  0
 16 11  1  0
  3 27  1  0
  3 28  1  0
  7 29  1  0
  9 30  1  0
  9 31  1  0
 10 32  1  0
 10 33  1  0
 12 34  1  0
 13 35  1  0
 14 36  1  0
 15 37  1  0
 19 38  1  0
 20 39  1  0
 20 40  1  0
 22 41  1  0
 23 42  1  0
 24 43  1  0
 25 44  1  0
M  END
>  <Energy>  (576) 
600.16441119989827

>  <compound_id>  (576) 
37520

>  <target_id>  (576) 
1

>  <reference_id>  (576) 
82

>  <inspiration_ids>  (576) 
[51, 82]

>  <energy_score>  (576) 
576.4736234198961

>  <distance_score>  (576) 
12.541207382846418

>  <path>  (576) 
/opt/xchem-fragalysis-2/maxwin/BulkDock/SCRATCH/511025/C37520-P82/C37520-P82.minimised.mol

>  <scratch_subdir>  (576) 
/opt/xchem-fragalysis-2/maxwin/BulkDock/SCRATCH/511025/C37520-P82

>  <fragmenstein_runtime>  (576) 
28.264649868011475

>  <fragmenstein_outcome>  (576) 
too moved

>  <fragmenstein_mode>  (576) 
expansion

>  <fragmenstein_error>  (576) 


$$$$
C57525-P51
     RDKit          3D

 55 59  0  0  0  0  0  0  0  0999 V2000
  -13.2713  -16.1667   20.7111 C   0  0  0  0  0  0  0  0  0  0  0  0
  -14.3083  -16.8327   20.1694 C   0  0  0  0  0  0  0  0  0  0  0  0
  -14.1946  -18.4610   19.3952 C   0  0  0  0  0  0  0  0  0  0  0  0
  -13.2575  -19.0224   17.5739 N   0  0  0  0  0  0  0  0  0  0  0  0
  -11.9568  -18.1780   16.5013 C   0  0  0  0  0  0  0  0  0  0  0  0
  -11.5642  -17.2504   17.0349 O   0  0  0  0  0  0  0  0  0  0  0  0
  -11.1329  -18.2900   14.5506 C   0  0  0  0  0  0  0  0  0  0  0  0
  -10.6405  -16.7969   13.2920 N   0  0  0  0  0  0  0  0  0  0  0  0
  -10.5223  -16.7326   11.9440 C   0  0  0  0  0  0  0  0  0  0  0  0
   -9.7021  -17.3555   11.2647 O   0  0  0  0  0  0  0  0  0  0  0  0
  -11.2743  -15.5441   11.3681 N   0  0  0  0  0  0  0  0  0  0  0  0
  -10.2357  -14.6173   11.4570 C   0  0  0  0  0  0  0  0  0  0  0  0
   -9.5825  -14.8872   10.0054 C   0  0  0  0  0  0  0  0  0  0  0  0
  -10.1632  -13.8171    9.0603 C   0  0  0  0  0  0  0  0  0  0  0  0
   -9.9773  -12.6469    9.9554 C   0  0  0  0  0  0  0  0  0  0  0  0
   -9.4911  -11.4037    9.5088 C   0  0  0  0  0  0  0  0  0  0  0  0
   -8.9429  -10.5298   10.4326 C   0  0  0  0  0  0  0  0  0  0  0  0
   -8.8945  -10.9180   11.7705 C   0  0  0  0  0  0  0  0  0  0  0  0
   -9.4158  -12.1714   12.1928 C   0  0  0  0  0  0  0  0  0  0  0  0
  -10.0461  -13.0635   11.3098 C   0  0  0  0  0  0  0  0  0  0  0  0
  -10.2484  -15.3332   13.1659 C   0  0  0  0  0  0  0  0  0  0  0  0
   -9.8295  -14.5307   13.9978 O   0  0  0  0  0  0  0  0  0  0  0  0
  -12.4999  -20.2861   18.6711 C   0  0  0  0  0  0  0  0  0  0  0  0
  -13.0746  -21.8056   18.6824 N   0  0  0  0  0  0  0  0  0  0  0  0
  -13.0384  -22.6966   19.9921 C   0  0  0  0  0  0  0  0  0  0  0  0
  -12.3144  -22.1582   21.0488 C   0  0  0  0  0  0  0  0  0  0  0  0
  -11.3718  -20.8824   20.5459 S   0  0  0  0  0  0  0  0  0  0  0  0
  -12.6222  -22.2129   22.5641 C   0  0  0  0  0  0  0  0  0  0  0  0
  -14.0858  -22.6726   22.8391 C   0  0  0  0  0  0  0  0  0  0  0  0
  -14.9432  -23.0861   21.6049 C   0  0  0  0  0  0  0  0  0  0  0  0
  -14.2148  -23.5896   20.3192 C   0  0  0  0  0  0  0  0  0  0  0  0
  -12.4538  -15.8716   20.0993 H   0  0  0  0  0  0  0  0  0  0  0  0
  -13.4825  -15.8089   21.6943 H   0  0  0  0  0  0  0  0  0  0  0  0
  -15.2149  -16.5582   20.6659 H   0  0  0  0  0  0  0  0  0  0  0  0
  -15.2041  -18.3562   19.1145 H   0  0  0  0  0  0  0  0  0  0  0  0
  -14.9053  -19.3280   19.7386 H   0  0  0  0  0  0  0  0  0  0  0  0
  -10.9362  -19.2420   14.0379 H   0  0  0  0  0  0  0  0  0  0  0  0
  -12.0530  -18.2717   14.0892 H   0  0  0  0  0  0  0  0  0  0  0  0
  -12.0960  -15.2086   11.8493 H   0  0  0  0  0  0  0  0  0  0  0  0
   -8.4896  -14.7870    9.9944 H   0  0  0  0  0  0  0  0  0  0  0  0
   -9.7957  -15.8633    9.5544 H   0  0  0  0  0  0  0  0  0  0  0  0
   -9.5848  -13.7521    8.1343 H   0  0  0  0  0  0  0  0  0  0  0  0
  -11.2214  -13.9849    8.8380 H   0  0  0  0  0  0  0  0  0  0  0  0
   -9.4524  -11.1780    8.4494 H   0  0  0  0  0  0  0  0  0  0  0  0
   -8.5088   -9.5894   10.1154 H   0  0  0  0  0  0  0  0  0  0  0  0
   -8.4185  -10.2695   12.5027 H   0  0  0  0  0  0  0  0  0  0  0  0
   -9.2376  -12.4488   13.2297 H   0  0  0  0  0  0  0  0  0  0  0  0
  -11.8978  -22.8041   23.1235 H   0  0  0  0  0  0  0  0  0  0  0  0
  -12.4223  -21.2581   23.0450 H   0  0  0  0  0  0  0  0  0  0  0  0
  -14.0771  -23.5006   23.5566 H   0  0  0  0  0  0  0  0  0  0  0  0
  -14.6243  -21.8866   23.3818 H   0  0  0  0  0  0  0  0  0  0  0  0
  -15.6730  -23.8430   21.9174 H   0  0  0  0  0  0  0  0  0  0  0  0
  -15.5402  -22.2101   21.3168 H   0  0  0  0  0  0  0  0  0  0  0  0
  -13.8967  -24.6301   20.4173 H   0  0  0  0  0  0  0  0  0  0  0  0
  -14.9433  -23.6417   19.5192 H   0  0  0  0  0  0  0  0  0  0  0  0
  1  2  2  0
  2  3  1  0
  3  4  1  0
  4  5  1  0
  5  6  2  0
  5  7  1  0
  7  8  1  0
  8  9  1  0
  9 10  2  0
  9 11  1  0
 11 12  1  0
 12 13  1  0
 13 14  1  0
 14 15  1  0
 15 16  2  0
 16 17  1  0
 17 18  2  0
 18 19  1  0
 19 20  2  0
 12 21  1  0
 21 22  2  0
  4 23  1  0
 23 24  2  0
 24 25  1  0
 25 26  2  0
 26 27  1  0
 26 28  1  0
 28 29  1  0
 29 30  1  0
 30 31  1  0
 21  8  1  0
 27 23  1  0
 20 12  1  0
 31 25  1  0
 20 15  1  0
  1 32  1  0
  1 33  1  0
  2 34  1  0
  3 35  1  0
  3 36  1  0
  7 37  1  0
  7 38  1  0
 11 39  1  0
 13 40  1  0
 13 41  1  0
 14 42  1  0
 14 43  1  0
 16 44  1  0
 17 45  1  0
 18 46  1  0
 19 47  1  0
 28 48  1  0
 28 49  1  0
 29 50  1  0
 29 51  1  0
 30 52  1  0
 30 53  1  0
 31 54  1  0
 31 55  1  0
M  END
>  <Energy>  (577) 
973.66954745875023

>  <compound_id>  (577) 
57525

>  <target_id>  (577) 
1

>  <reference_id>  (577) 
51

>  <inspiration_ids>  (577) 
[51, 82]

>  <energy_score>  (577) 
913.2650033064455

>  <distance_score>  (577) 
12.612872144992268

>  <path>  (577) 
/opt/xchem-fragalysis-2/maxwin/BulkDock/SCRATCH/511025/C57525-P51/C57525-P51.minimised.mol

>  <scratch_subdir>  (577) 
/opt/xchem-fragalysis-2/maxwin/BulkDock/SCRATCH/511025/C57525-P51

>  <fragmenstein_runtime>  (577) 
40.52256393432617

>  <fragmenstein_outcome>  (577) 
too moved

>  <fragmenstein_mode>  (577) 
expansion

>  <fragmenstein_error>  (577) 


$$$$
C57525-P82
     RDKit          3D

 55 59  0  0  0  0  0  0  0  0999 V2000
  -13.5820  -16.0682   20.8823 C   0  0  0  0  0  0  0  0  0  0  0  0
  -12.4659  -15.2423   20.7141 C   0  0  0  0  0  0  0  0  0  0  0  0
  -11.2076  -14.2071   22.2176 C   0  0  0  0  0  0  0  0  0  0  0  0
  -11.4915  -14.0702   21.1143 N   0  0  0  0  0  0  0  0  0  0  0  0
  -10.4174  -13.5195   19.4478 C   0  0  0  0  0  0  0  0  0  0  0  0
   -9.2947  -13.2127   19.7798 O   0  0  0  0  0  0  0  0  0  0  0  0
  -10.6808  -12.9453   17.4328 C   0  0  0  0  0  0  0  0  0  0  0  0
  -10.3967  -12.4485   15.4527 N   0  0  0  0  0  0  0  0  0  0  0  0
   -9.8254  -13.1877   14.2438 C   0  0  0  0  0  0  0  0  0  0  0  0
   -9.7143  -14.3562   13.9290 O   0  0  0  0  0  0  0  0  0  0  0  0
   -9.5446  -12.1436   13.1324 N   0  0  0  0  0  0  0  0  0  0  0  0
   -9.3478  -10.7965   13.6593 C   0  0  0  0  0  0  0  0  0  0  0  0
   -8.1807  -10.1756   12.9443 C   0  0  0  0  0  0  0  0  0  0  0  0
   -7.9772   -8.9363   13.7688 C   0  0  0  0  0  0  0  0  0  0  0  0
   -9.3973   -8.3332   14.0843 C   0  0  0  0  0  0  0  0  0  0  0  0
   -9.8800   -6.6289   14.3401 C   0  0  0  0  0  0  0  0  0  0  0  0
  -11.2571   -6.2848   14.4622 C   0  0  0  0  0  0  0  0  0  0  0  0
  -12.1761   -7.3825   14.1646 C   0  0  0  0  0  0  0  0  0  0  0  0
  -11.7593   -8.8578   13.9987 C   0  0  0  0  0  0  0  0  0  0  0  0
  -10.2824   -9.3935   13.9083 C   0  0  0  0  0  0  0  0  0  0  0  0
   -9.3722  -11.6912   14.9168 C   0  0  0  0  0  0  0  0  0  0  0  0
   -8.4153  -11.8336   15.6324 O   0  0  0  0  0  0  0  0  0  0  0  0
  -11.7819  -15.8518   22.1745 C   0  0  0  0  0  0  0  0  0  0  0  0
  -12.9754  -15.8847   23.2190 N   0  0  0  0  0  0  0  0  0  0  0  0
  -13.2218  -16.0654   24.6897 C   0  0  0  0  0  0  0  0  0  0  0  0
  -12.0470  -16.0960   25.3172 C   0  0  0  0  0  0  0  0  0  0  0  0
  -11.0673  -17.0015   24.1469 S   0  0  0  0  0  0  0  0  0  0  0  0
  -11.7658  -15.7263   26.7957 C   0  0  0  0  0  0  0  0  0  0  0  0
  -13.0674  -15.3344   27.5301 C   0  0  0  0  0  0  0  0  0  0  0  0
  -14.3575  -15.9591   26.9901 C   0  0  0  0  0  0  0  0  0  0  0  0
  -14.5046  -15.8008   25.4757 C   0  0  0  0  0  0  0  0  0  0  0  0
  -14.2213  -16.0027   21.7288 H   0  0  0  0  0  0  0  0  0  0  0  0
  -14.1232  -16.6363   20.1341 H   0  0  0  0  0  0  0  0  0  0  0  0
  -12.0729  -15.6821   19.7796 H   0  0  0  0  0  0  0  0  0  0  0  0
  -11.7404  -14.2188   23.0903 H   0  0  0  0  0  0  0  0  0  0  0  0
  -10.9621  -13.1606   22.0141 H   0  0  0  0  0  0  0  0  0  0  0  0
  -11.2164  -11.9788   17.6365 H   0  0  0  0  0  0  0  0  0  0  0  0
   -9.7355  -12.4107   17.7020 H   0  0  0  0  0  0  0  0  0  0  0  0
   -9.0848  -12.4940   12.3020 H   0  0  0  0  0  0  0  0  0  0  0  0
   -8.4392   -9.9350   11.9058 H   0  0  0  0  0  0  0  0  0  0  0  0
   -7.2842  -10.8025   12.9209 H   0  0  0  0  0  0  0  0  0  0  0  0
   -7.2065   -8.2854   13.3539 H   0  0  0  0  0  0  0  0  0  0  0  0
   -7.6370   -9.3948   14.6754 H   0  0  0  0  0  0  0  0  0  0  0  0
   -9.1026   -5.8735   14.5196 H   0  0  0  0  0  0  0  0  0  0  0  0
  -11.5711   -5.2652   14.6272 H   0  0  0  0  0  0  0  0  0  0  0  0
  -13.1629   -7.1656   13.7352 H   0  0  0  0  0  0  0  0  0  0  0  0
  -12.6167   -9.5243   14.0823 H   0  0  0  0  0  0  0  0  0  0  0  0
  -11.2087  -16.5037   27.3312 H   0  0  0  0  0  0  0  0  0  0  0  0
  -11.1269  -14.8614   26.9335 H   0  0  0  0  0  0  0  0  0  0  0  0
  -12.9562  -15.5345   28.6009 H   0  0  0  0  0  0  0  0  0  0  0  0
  -13.1794  -14.2440   27.4453 H   0  0  0  0  0  0  0  0  0  0  0  0
  -15.2150  -15.4843   27.4846 H   0  0  0  0  0  0  0  0  0  0  0  0
  -14.4419  -17.0101   27.2392 H   0  0  0  0  0  0  0  0  0  0  0  0
  -14.8490  -14.7716   25.3785 H   0  0  0  0  0  0  0  0  0  0  0  0
  -15.3316  -16.4212   25.1499 H   0  0  0  0  0  0  0  0  0  0  0  0
  1  2  2  0
  2  3  1  0
  3  4  1  0
  4  5  1  0
  5  6  2  0
  5  7  1  0
  7  8  1  0
  8  9  1  0
  9 10  2  0
  9 11  1  0
 11 12  1  0
 12 13  1  0
 13 14  1  0
 14 15  1  0
 15 16  2  0
 16 17  1  0
 17 18  2  0
 18 19  1  0
 19 20  2  0
 12 21  1  0
 21 22  2  0
  4 23  1  0
 23 24  2  0
 24 25  1  0
 25 26  2  0
 26 27  1  0
 26 28  1  0
 28 29  1  0
 29 30  1  0
 30 31  1  0
 21  8  1  0
 27 23  1  0
 20 12  1  0
 31 25  1  0
 20 15  1  0
  1 32  1  0
  1 33  1  0
  2 34  1  0
  3 35  1  0
  3 36  1  0
  7 37  1  0
  7 38  1  0
 11 39  1  0
 13 40  1  0
 13 41  1  0
 14 42  1  0
 14 43  1  0
 16 44  1  0
 17 45  1  0
 18 46  1  0
 19 47  1  0
 28 48  1  0
 28 49  1  0
 29 50  1  0
 29 51  1  0
 30 52  1  0
 30 53  1  0
 31 54  1  0
 31 55  1  0
M  END
>  <Energy>  (578) 
1809.1388741269921

>  <compound_id>  (578) 
57525

>  <target_id>  (578) 
1

>  <reference_id>  (578) 
82

>  <inspiration_ids>  (578) 
[51, 82]

>  <energy_score>  (578) 
1748.734329974724

>  <distance_score>  (578) 
11.486321067847415

>  <path>  (578) 
/opt/xchem-fragalysis-2/maxwin/BulkDock/SCRATCH/511025/C57525-P82/C57525-P82.minimised.mol

>  <scratch_subdir>  (578) 
/opt/xchem-fragalysis-2/maxwin/BulkDock/SCRATCH/511025/C57525-P82

>  <fragmenstein_runtime>  (578) 
64.09581184387207

>  <fragmenstein_outcome>  (578) 
too moved

>  <fragmenstein_mode>  (578) 
expansion

>  <fragmenstein_error>  (578) 


$$$$
C37521-P51
     RDKit          3D

 47 50  0  0  0  0  0  0  0  0999 V2000
   -8.1920   -3.1095   16.9268 O   0  0  0  0  0  0  0  0  0  0  0  0
   -8.7209   -4.1824   16.7819 C   0  0  0  0  0  0  0  0  0  0  0  0
   -8.6725   -4.7825   15.2049 C   0  0  0  0  0  0  0  0  0  0  0  0
   -9.2440   -4.4054   13.8460 N   0  0  0  0  0  0  0  0  0  0  0  0
  -10.2574   -5.1030   13.4184 C   0  0  0  0  0  0  0  0  0  0  0  0
  -11.0019   -5.7466   14.1528 O   0  0  0  0  0  0  0  0  0  0  0  0
  -10.2374   -5.0796   11.8259 N   0  0  0  0  0  0  0  0  0  0  0  0
   -9.7250   -4.0800   11.0368 C   0  0  0  0  0  0  0  0  0  0  0  0
   -9.0501   -4.1745    9.3216 C   0  0  0  0  0  0  0  0  0  0  0  0
   -8.9465   -2.7451    8.6634 C   0  0  0  0  0  0  0  0  0  0  0  0
   -9.7165   -1.7307    9.5141 C   0  0  0  0  0  0  0  0  0  0  0  0
  -10.0224   -0.4695    9.0082 C   0  0  0  0  0  0  0  0  0  0  0  0
  -10.9297    0.3039    9.7109 C   0  0  0  0  0  0  0  0  0  0  0  0
  -11.5142   -0.1863   10.8908 C   0  0  0  0  0  0  0  0  0  0  0  0
  -11.1580   -1.4335   11.4709 C   0  0  0  0  0  0  0  0  0  0  0  0
  -10.2171   -2.2444   10.8445 C   0  0  0  0  0  0  0  0  0  0  0  0
   -8.6804   -4.6210   12.6350 C   0  0  0  0  0  0  0  0  0  0  0  0
   -7.6059   -5.2430   12.6498 O   0  0  0  0  0  0  0  0  0  0  0  0
   -9.3176   -5.1095   17.7830 N   0  0  0  0  0  0  0  0  0  0  0  0
   -9.3543   -5.0443   19.3129 C   0  0  0  0  0  0  0  0  0  0  0  0
  -10.5721   -5.6253   20.1660 C   0  0  0  0  0  0  0  0  0  0  0  0
  -10.5609   -6.7341   21.3272 C   0  0  0  0  0  0  0  0  0  0  0  0
  -11.7998   -7.2808   21.7410 C   0  0  0  0  0  0  0  0  0  0  0  0
  -11.9293   -8.0772   22.9001 C   0  0  0  0  0  0  0  0  0  0  0  0
  -10.8265   -8.2899   23.7005 C   0  0  0  0  0  0  0  0  0  0  0  0
   -9.6446   -7.7222   23.2616 C   0  0  0  0  0  0  0  0  0  0  0  0
   -9.4662   -7.0059   22.0851 N   0  0  0  0  0  0  0  0  0  0  0  0
   -7.5865   -4.7024   15.0301 H   0  0  0  0  0  0  0  0  0  0  0  0
   -8.8019   -5.8558   15.2970 H   0  0  0  0  0  0  0  0  0  0  0  0
  -10.8617   -5.5895   11.2500 H   0  0  0  0  0  0  0  0  0  0  0  0
   -8.0726   -4.6646    9.2020 H   0  0  0  0  0  0  0  0  0  0  0  0
   -9.6405   -4.7752    8.7035 H   0  0  0  0  0  0  0  0  0  0  0  0
   -9.3789   -2.7871    7.6559 H   0  0  0  0  0  0  0  0  0  0  0  0
   -7.9044   -2.4273    8.5559 H   0  0  0  0  0  0  0  0  0  0  0  0
   -9.6231   -0.1346    8.0572 H   0  0  0  0  0  0  0  0  0  0  0  0
  -11.2178    1.2803    9.3316 H   0  0  0  0  0  0  0  0  0  0  0  0
  -12.2457    0.4346   11.4056 H   0  0  0  0  0  0  0  0  0  0  0  0
  -11.6718   -1.7015   12.3815 H   0  0  0  0  0  0  0  0  0  0  0  0
   -9.7472   -5.8811   17.3028 H   0  0  0  0  0  0  0  0  0  0  0  0
   -9.2208   -3.9848   19.5598 H   0  0  0  0  0  0  0  0  0  0  0  0
   -8.4423   -5.5607   19.6300 H   0  0  0  0  0  0  0  0  0  0  0  0
  -11.3448   -5.8778   19.4472 H   0  0  0  0  0  0  0  0  0  0  0  0
  -10.9722   -4.7493   20.6990 H   0  0  0  0  0  0  0  0  0  0  0  0
  -12.7073   -7.0624   21.1828 H   0  0  0  0  0  0  0  0  0  0  0  0
  -12.9008   -8.4869   23.1644 H   0  0  0  0  0  0  0  0  0  0  0  0
  -10.8826   -8.8554   24.6215 H   0  0  0  0  0  0  0  0  0  0  0  0
   -8.7554   -7.8132   23.8778 H   0  0  0  0  0  0  0  0  0  0  0  0
  1  2  2  0
  2  3  1  0
  3  4  1  0
  4  5  1  0
  5  6  2  0
  5  7  1  0
  7  8  1  0
  8  9  1  0
  9 10  1  0
 10 11  1  0
 11 12  2  0
 12 13  1  0
 13 14  2  0
 14 15  1  0
 15 16  2  0
  8 17  1  0
 17 18  2  0
  2 19  1  0
 19 20  1  0
 20 21  1  0
 21 22  1  0
 22 23  2  0
 23 24  1  0
 24 25  2  0
 25 26  1  0
 26 27  2  0
 17  4  1  0
 27 22  1  0
 16  8  1  0
 16 11  1  0
  3 28  1  0
  3 29  1  0
  7 30  1  0
  9 31  1  0
  9 32  1  0
 10 33  1  0
 10 34  1  0
 12 35  1  0
 13 36  1  0
 14 37  1  0
 15 38  1  0
 19 39  1  0
 20 40  1  0
 20 41  1  0
 21 42  1  0
 21 43  1  0
 23 44  1  0
 24 45  1  0
 25 46  1  0
 26 47  1  0
M  END
>  <Energy>  (579) 
277.91541419352325

>  <compound_id>  (579) 
37521

>  <target_id>  (579) 
1

>  <reference_id>  (579) 
51

>  <inspiration_ids>  (579) 
[51, 82]

>  <energy_score>  (579) 
243.30141041439816

>  <distance_score>  (579) 
12.381540385350057

>  <path>  (579) 
/opt/xchem-fragalysis-2/maxwin/BulkDock/SCRATCH/511025/C37521-P51/C37521-P51.minimised.mol

>  <scratch_subdir>  (579) 
/opt/xchem-fragalysis-2/maxwin/BulkDock/SCRATCH/511025/C37521-P51

>  <fragmenstein_runtime>  (579) 
42.943827867507935

>  <fragmenstein_outcome>  (579) 
too moved

>  <fragmenstein_mode>  (579) 
expansion

>  <fragmenstein_error>  (579) 


$$$$
C37521-P82
     RDKit          3D

 47 50  0  0  0  0  0  0  0  0999 V2000
   -6.8597  -12.5053   12.7605 O   0  0  0  0  0  0  0  0  0  0  0  0
   -8.0369  -12.6288   12.9990 C   0  0  0  0  0  0  0  0  0  0  0  0
   -9.0460  -11.3714   11.9153 C   0  0  0  0  0  0  0  0  0  0  0  0
   -8.6964  -10.2096   10.4505 N   0  0  0  0  0  0  0  0  0  0  0  0
   -9.5280   -9.9881    9.4426 C   0  0  0  0  0  0  0  0  0  0  0  0
  -10.5764  -10.6020    9.2996 O   0  0  0  0  0  0  0  0  0  0  0  0
   -9.1546   -8.9616    8.5513 N   0  0  0  0  0  0  0  0  0  0  0  0
   -7.8922   -7.9615    8.4645 C   0  0  0  0  0  0  0  0  0  0  0  0
   -6.7930   -7.4245    9.3827 C   0  0  0  0  0  0  0  0  0  0  0  0
   -6.8619   -5.6020    9.2582 C   0  0  0  0  0  0  0  0  0  0  0  0
   -7.4190   -4.9967    8.0215 C   0  0  0  0  0  0  0  0  0  0  0  0
   -7.3678   -3.7018    7.4277 C   0  0  0  0  0  0  0  0  0  0  0  0
   -8.2776   -3.3219    6.4655 C   0  0  0  0  0  0  0  0  0  0  0  0
   -9.2242   -4.2443    6.1225 C   0  0  0  0  0  0  0  0  0  0  0  0
   -9.1359   -5.5620    6.6469 C   0  0  0  0  0  0  0  0  0  0  0  0
   -8.1104   -6.0666    7.5255 C   0  0  0  0  0  0  0  0  0  0  0  0
   -7.8153   -9.1283   10.0982 C   0  0  0  0  0  0  0  0  0  0  0  0
   -6.8960   -9.1607   10.9498 O   0  0  0  0  0  0  0  0  0  0  0  0
   -8.6788  -13.9032   14.1807 N   0  0  0  0  0  0  0  0  0  0  0  0
   -7.7398  -15.3653   15.1746 C   0  0  0  0  0  0  0  0  0  0  0  0
   -7.8084  -16.4143   16.9451 C   0  0  0  0  0  0  0  0  0  0  0  0
   -7.0821  -17.5752   18.3486 C   0  0  0  0  0  0  0  0  0  0  0  0
   -6.6363  -17.3918   19.7456 C   0  0  0  0  0  0  0  0  0  0  0  0
   -6.3112  -18.3740   20.6963 C   0  0  0  0  0  0  0  0  0  0  0  0
   -5.9164  -19.5518   20.2224 C   0  0  0  0  0  0  0  0  0  0  0  0
   -6.1550  -19.6929   18.9301 C   0  0  0  0  0  0  0  0  0  0  0  0
   -6.9378  -18.8528   18.1739 N   0  0  0  0  0  0  0  0  0  0  0  0
   -9.3851  -10.6333   12.6506 H   0  0  0  0  0  0  0  0  0  0  0  0
   -9.8870  -11.9532   11.5264 H   0  0  0  0  0  0  0  0  0  0  0  0
   -9.7554   -9.0033    7.7407 H   0  0  0  0  0  0  0  0  0  0  0  0
   -6.2206   -7.5454   10.3176 H   0  0  0  0  0  0  0  0  0  0  0  0
   -6.0976   -8.1429    8.8963 H   0  0  0  0  0  0  0  0  0  0  0  0
   -5.8629   -5.4169    9.2346 H   0  0  0  0  0  0  0  0  0  0  0  0
   -7.2790   -5.1032   10.0904 H   0  0  0  0  0  0  0  0  0  0  0  0
   -6.6553   -2.9340    7.7049 H   0  0  0  0  0  0  0  0  0  0  0  0
   -8.2773   -2.3251    6.0419 H   0  0  0  0  0  0  0  0  0  0  0  0
  -10.0131   -4.0044    5.4132 H   0  0  0  0  0  0  0  0  0  0  0  0
   -9.8749   -6.2273    6.2197 H   0  0  0  0  0  0  0  0  0  0  0  0
   -9.6894  -13.8867   14.1656 H   0  0  0  0  0  0  0  0  0  0  0  0
   -7.2554  -16.0803   14.5179 H   0  0  0  0  0  0  0  0  0  0  0  0
   -7.0453  -14.6926   15.6487 H   0  0  0  0  0  0  0  0  0  0  0  0
   -6.7999  -16.0158   16.8550 H   0  0  0  0  0  0  0  0  0  0  0  0
   -8.3975  -15.8859   17.6860 H   0  0  0  0  0  0  0  0  0  0  0  0
   -6.9271  -16.5582   20.3543 H   0  0  0  0  0  0  0  0  0  0  0  0
   -6.3344  -18.1611   21.7554 H   0  0  0  0  0  0  0  0  0  0  0  0
   -5.4901  -20.3732   20.7483 H   0  0  0  0  0  0  0  0  0  0  0  0
   -5.7825  -20.5861   18.4390 H   0  0  0  0  0  0  0  0  0  0  0  0
  1  2  2  0
  2  3  1  0
  3  4  1  0
  4  5  1  0
  5  6  2  0
  5  7  1  0
  7  8  1  0
  8  9  1  0
  9 10  1  0
 10 11  1  0
 11 12  2  0
 12 13  1  0
 13 14  2  0
 14 15  1  0
 15 16  2  0
  8 17  1  0
 17 18  2  0
  2 19  1  0
 19 20  1  0
 20 21  1  0
 21 22  1  0
 22 23  2  0
 23 24  1  0
 24 25  2  0
 25 26  1  0
 26 27  2  0
 17  4  1  0
 27 22  1  0
 16  8  1  0
 16 11  1  0
  3 28  1  0
  3 29  1  0
  7 30  1  0
  9 31  1  0
  9 32  1  0
 10 33  1  0
 10 34  1  0
 12 35  1  0
 13 36  1  0
 14 37  1  0
 15 38  1  0
 19 39  1  0
 20 40  1  0
 20 41  1  0
 21 42  1  0
 21 43  1  0
 23 44  1  0
 24 45  1  0
 25 46  1  0
 26 47  1  0
M  END
>  <Energy>  (580) 
914.22132173608418

>  <compound_id>  (580) 
37521

>  <target_id>  (580) 
1

>  <reference_id>  (580) 
82

>  <inspiration_ids>  (580) 
[51, 82]

>  <energy_score>  (580) 
879.6073179569544

>  <distance_score>  (580) 
9.912211947708206

>  <path>  (580) 
/opt/xchem-fragalysis-2/maxwin/BulkDock/SCRATCH/511025/C37521-P82/C37521-P82.minimised.mol

>  <scratch_subdir>  (580) 
/opt/xchem-fragalysis-2/maxwin/BulkDock/SCRATCH/511025/C37521-P82

>  <fragmenstein_runtime>  (580) 
32.46921730041504

>  <fragmenstein_outcome>  (580) 
too moved

>  <fragmenstein_mode>  (580) 
expansion

>  <fragmenstein_error>  (580) 


$$$$
C37522-P51
     RDKit          3D

 41 44  0  0  0  0  0  0  0  0999 V2000
   -8.5387  -17.7799   15.5657 O   0  0  0  0  0  0  0  0  0  0  0  0
   -8.2463  -16.7960   16.2108 C   0  0  0  0  0  0  0  0  0  0  0  0
   -7.8899  -15.2967   15.0086 C   0  0  0  0  0  0  0  0  0  0  0  0
   -8.8848  -13.7963   14.3947 N   0  0  0  0  0  0  0  0  0  0  0  0
   -9.3726  -13.4600   13.1936 C   0  0  0  0  0  0  0  0  0  0  0  0
  -10.2362  -14.0573   12.5559 O   0  0  0  0  0  0  0  0  0  0  0  0
   -8.9542  -12.1874   12.8077 N   0  0  0  0  0  0  0  0  0  0  0  0
   -8.6404  -11.2368   13.9049 C   0  0  0  0  0  0  0  0  0  0  0  0
   -9.5663  -10.0906   13.9799 C   0  0  0  0  0  0  0  0  0  0  0  0
   -9.1565   -9.3717   12.7904 C   0  0  0  0  0  0  0  0  0  0  0  0
   -7.7459   -8.7723   13.0965 C   0  0  0  0  0  0  0  0  0  0  0  0
   -6.7332   -7.8864   11.7921 C   0  0  0  0  0  0  0  0  0  0  0  0
   -5.4098   -8.0513   11.6247 C   0  0  0  0  0  0  0  0  0  0  0  0
   -5.0878   -9.0147   12.5965 C   0  0  0  0  0  0  0  0  0  0  0  0
   -5.9447  -10.0101   13.5883 C   0  0  0  0  0  0  0  0  0  0  0  0
   -7.3480   -9.9298   13.8459 C   0  0  0  0  0  0  0  0  0  0  0  0
   -8.8339  -12.4015   14.9063 C   0  0  0  0  0  0  0  0  0  0  0  0
   -8.4641  -12.2341   16.0806 O   0  0  0  0  0  0  0  0  0  0  0  0
   -8.2332  -16.5832   17.6590 N   0  0  0  0  0  0  0  0  0  0  0  0
   -8.6073  -17.4576   18.7536 C   0  0  0  0  0  0  0  0  0  0  0  0
   -8.9077  -16.9689   20.0387 C   0  0  0  0  0  0  0  0  0  0  0  0
   -9.2111  -17.8302   21.1146 C   0  0  0  0  0  0  0  0  0  0  0  0
   -9.2289  -19.1908   20.8837 C   0  0  0  0  0  0  0  0  0  0  0  0
   -8.9861  -19.7136   19.6669 N   0  0  0  0  0  0  0  0  0  0  0  0
   -8.6972  -18.8470   18.6414 C   0  0  0  0  0  0  0  0  0  0  0  0
   -7.1433  -14.8319   15.6609 H   0  0  0  0  0  0  0  0  0  0  0  0
   -7.4471  -15.8611   14.2173 H   0  0  0  0  0  0  0  0  0  0  0  0
   -9.5616  -11.9148   12.0524 H   0  0  0  0  0  0  0  0  0  0  0  0
   -9.3997   -9.4170   14.7801 H   0  0  0  0  0  0  0  0  0  0  0  0
  -10.5905  -10.2023   14.1029 H   0  0  0  0  0  0  0  0  0  0  0  0
   -9.9248   -9.3288   12.0335 H   0  0  0  0  0  0  0  0  0  0  0  0
   -8.7721  -10.0712   12.1538 H   0  0  0  0  0  0  0  0  0  0  0  0
   -7.0653   -8.1378   10.6996 H   0  0  0  0  0  0  0  0  0  0  0  0
   -4.9068   -7.8148   10.7163 H   0  0  0  0  0  0  0  0  0  0  0  0
   -4.2304   -9.5263   12.2909 H   0  0  0  0  0  0  0  0  0  0  0  0
   -5.3594  -10.8782   13.7634 H   0  0  0  0  0  0  0  0  0  0  0  0
   -8.0211  -15.6247   17.8442 H   0  0  0  0  0  0  0  0  0  0  0  0
   -8.9440  -15.9014   20.2301 H   0  0  0  0  0  0  0  0  0  0  0  0
   -9.4301  -17.4317   22.0982 H   0  0  0  0  0  0  0  0  0  0  0  0
   -9.4529  -19.9105   21.6644 H   0  0  0  0  0  0  0  0  0  0  0  0
   -8.5135  -19.3425   17.6903 H   0  0  0  0  0  0  0  0  0  0  0  0
  1  2  2  0
  2  3  1  0
  3  4  1  0
  4  5  1  0
  5  6  2  0
  5  7  1  0
  7  8  1  0
  8  9  1  0
  9 10  1  0
 10 11  1  0
 11 12  2  0
 12 13  1  0
 13 14  2  0
 14 15  1  0
 15 16  2  0
  8 17  1  0
 17 18  2  0
  2 19  1  0
 19 20  1  0
 20 21  2  0
 21 22  1  0
 22 23  2  0
 23 24  1  0
 24 25  2  0
 17  4  1  0
 25 20  1  0
 16  8  1  0
 16 11  1  0
  3 26  1  0
  3 27  1  0
  7 28  1  0
  9 29  1  0
  9 30  1  0
 10 31  1  0
 10 32  1  0
 12 33  1  0
 13 34  1  0
 14 35  1  0
 15 36  1  0
 19 37  1  0
 21 38  1  0
 22 39  1  0
 23 40  1  0
 25 41  1  0
M  END
>  <Energy>  (581) 
419.62776062536091

>  <compound_id>  (581) 
37522

>  <target_id>  (581) 
1

>  <reference_id>  (581) 
51

>  <inspiration_ids>  (581) 
[51, 82]

>  <energy_score>  (581) 
382.60309413353735

>  <distance_score>  (581) 
12.770558619262944

>  <path>  (581) 
/opt/xchem-fragalysis-2/maxwin/BulkDock/SCRATCH/511025/C37522-P51/C37522-P51.minimised.mol

>  <scratch_subdir>  (581) 
/opt/xchem-fragalysis-2/maxwin/BulkDock/SCRATCH/511025/C37522-P51

>  <fragmenstein_runtime>  (581) 
23.878542184829712

>  <fragmenstein_outcome>  (581) 
too moved

>  <fragmenstein_mode>  (581) 
expansion

>  <fragmenstein_error>  (581) 


$$$$
C37522-P82
     RDKit          3D

 41 44  0  0  0  0  0  0  0  0999 V2000
  -11.1267  -13.8804   20.7939 O   0  0  0  0  0  0  0  0  0  0  0  0
  -10.3544  -14.1835   19.9236 C   0  0  0  0  0  0  0  0  0  0  0  0
  -10.3855  -12.8337   18.5079 C   0  0  0  0  0  0  0  0  0  0  0  0
  -11.5217  -11.5773   17.8542 N   0  0  0  0  0  0  0  0  0  0  0  0
  -12.9870  -11.2379   17.8677 C   0  0  0  0  0  0  0  0  0  0  0  0
  -13.9609  -11.4852   18.5743 O   0  0  0  0  0  0  0  0  0  0  0  0
  -13.3812  -10.8875   16.5670 N   0  0  0  0  0  0  0  0  0  0  0  0
  -12.4533  -10.4643   15.5131 C   0  0  0  0  0  0  0  0  0  0  0  0
  -10.6739  -10.2652   14.6969 C   0  0  0  0  0  0  0  0  0  0  0  0
  -10.9399   -9.1412   13.8092 C   0  0  0  0  0  0  0  0  0  0  0  0
  -12.5251   -8.6915   13.8619 C   0  0  0  0  0  0  0  0  0  0  0  0
  -13.1570   -7.5747   13.2808 C   0  0  0  0  0  0  0  0  0  0  0  0
  -14.5097   -7.6456   12.9756 C   0  0  0  0  0  0  0  0  0  0  0  0
  -15.2309   -8.7999   13.2951 C   0  0  0  0  0  0  0  0  0  0  0  0
  -14.6510   -9.8533   14.0274 C   0  0  0  0  0  0  0  0  0  0  0  0
  -13.3043   -9.7742   14.3805 C   0  0  0  0  0  0  0  0  0  0  0  0
  -11.5401  -11.6446   16.5196 C   0  0  0  0  0  0  0  0  0  0  0  0
  -10.8904  -12.5432   16.0155 O   0  0  0  0  0  0  0  0  0  0  0  0
   -9.5019  -15.3405   19.7939 N   0  0  0  0  0  0  0  0  0  0  0  0
   -9.2483  -16.4089   20.6807 C   0  0  0  0  0  0  0  0  0  0  0  0
   -8.4649  -17.4834   20.2695 C   0  0  0  0  0  0  0  0  0  0  0  0
   -8.0667  -18.4480   21.1883 C   0  0  0  0  0  0  0  0  0  0  0  0
   -8.4856  -18.3099   22.4933 C   0  0  0  0  0  0  0  0  0  0  0  0
   -9.3451  -17.3704   22.9281 N   0  0  0  0  0  0  0  0  0  0  0  0
   -9.7025  -16.4338   22.0073 C   0  0  0  0  0  0  0  0  0  0  0  0
   -9.4821  -12.2760   18.7236 H   0  0  0  0  0  0  0  0  0  0  0  0
  -11.2310  -12.6566   19.0331 H   0  0  0  0  0  0  0  0  0  0  0  0
  -14.3837  -10.8976   16.4400 H   0  0  0  0  0  0  0  0  0  0  0  0
  -10.0740  -11.0873   14.2723 H   0  0  0  0  0  0  0  0  0  0  0  0
   -9.7987   -9.8084   15.0977 H   0  0  0  0  0  0  0  0  0  0  0  0
  -10.2720   -8.3879   14.2490 H   0  0  0  0  0  0  0  0  0  0  0  0
  -10.5457   -9.4589   12.8366 H   0  0  0  0  0  0  0  0  0  0  0  0
  -12.6388   -6.6602   13.0152 H   0  0  0  0  0  0  0  0  0  0  0  0
  -15.0083   -6.8139   12.4864 H   0  0  0  0  0  0  0  0  0  0  0  0
  -16.2890   -8.8540   13.0445 H   0  0  0  0  0  0  0  0  0  0  0  0
  -15.2727  -10.6751   14.3709 H   0  0  0  0  0  0  0  0  0  0  0  0
   -9.0500  -15.3132   18.9049 H   0  0  0  0  0  0  0  0  0  0  0  0
   -8.1090  -17.5552   19.2455 H   0  0  0  0  0  0  0  0  0  0  0  0
   -7.3960  -19.2502   20.9007 H   0  0  0  0  0  0  0  0  0  0  0  0
   -8.0635  -18.9536   23.2397 H   0  0  0  0  0  0  0  0  0  0  0  0
  -10.3450  -15.6489   22.3985 H   0  0  0  0  0  0  0  0  0  0  0  0
  1  2  2  0
  2  3  1  0
  3  4  1  0
  4  5  1  0
  5  6  2  0
  5  7  1  0
  7  8  1  0
  8  9  1  0
  9 10  1  0
 10 11  1  0
 11 12  2  0
 12 13  1  0
 13 14  2  0
 14 15  1  0
 15 16  2  0
  8 17  1  0
 17 18  2  0
  2 19  1  0
 19 20  1  0
 20 21  2  0
 21 22  1  0
 22 23  2  0
 23 24  1  0
 24 25  2  0
 17  4  1  0
 25 20  1  0
 16  8  1  0
 16 11  1  0
  3 26  1  0
  3 27  1  0
  7 28  1  0
  9 29  1  0
  9 30  1  0
 10 31  1  0
 10 32  1  0
 12 33  1  0
 13 34  1  0
 14 35  1  0
 15 36  1  0
 19 37  1  0
 21 38  1  0
 22 39  1  0
 23 40  1  0
 25 41  1  0
M  END
>  <Energy>  (582) 
427.5338790268022

>  <compound_id>  (582) 
37522

>  <target_id>  (582) 
1

>  <reference_id>  (582) 
82

>  <inspiration_ids>  (582) 
[51, 82]

>  <energy_score>  (582) 
390.5092125349789

>  <distance_score>  (582) 
13.11221676351238

>  <path>  (582) 
/opt/xchem-fragalysis-2/maxwin/BulkDock/SCRATCH/511025/C37522-P82/C37522-P82.minimised.mol

>  <scratch_subdir>  (582) 
/opt/xchem-fragalysis-2/maxwin/BulkDock/SCRATCH/511025/C37522-P82

>  <fragmenstein_runtime>  (582) 
33.92855167388916

>  <fragmenstein_outcome>  (582) 
too moved

>  <fragmenstein_mode>  (582) 
expansion

>  <fragmenstein_error>  (582) 


$$$$
C37520-P51
     RDKit          3D

 44 47  0  0  0  0  0  0  0  0999 V2000
  -14.5648  -15.7569   18.5317 O   0  0  0  0  0  0  0  0  0  0  0  0
  -13.6994  -15.1078   18.7275 C   0  0  0  0  0  0  0  0  0  0  0  0
  -14.1493  -13.2302   17.9552 C   0  0  0  0  0  0  0  0  0  0  0  0
  -13.6233  -11.3350   17.1219 N   0  0  0  0  0  0  0  0  0  0  0  0
  -12.5915  -11.2233   16.3865 C   0  0  0  0  0  0  0  0  0  0  0  0
  -11.4732  -11.7085   16.7050 O   0  0  0  0  0  0  0  0  0  0  0  0
  -12.6419  -10.2946   15.2982 N   0  0  0  0  0  0  0  0  0  0  0  0
  -13.6307   -9.6074   14.6479 C   0  0  0  0  0  0  0  0  0  0  0  0
  -14.0554   -9.9969   13.1805 C   0  0  0  0  0  0  0  0  0  0  0  0
  -13.5439   -9.0662   12.1564 C   0  0  0  0  0  0  0  0  0  0  0  0
  -13.8777   -7.8330   12.8707 C   0  0  0  0  0  0  0  0  0  0  0  0
  -14.4397   -6.7291   12.2155 C   0  0  0  0  0  0  0  0  0  0  0  0
  -14.8393   -5.6477   12.9661 C   0  0  0  0  0  0  0  0  0  0  0  0
  -14.5034   -5.6291   14.3022 C   0  0  0  0  0  0  0  0  0  0  0  0
  -13.9470   -6.7661   14.9320 C   0  0  0  0  0  0  0  0  0  0  0  0
  -13.7318   -7.9868   14.2704 C   0  0  0  0  0  0  0  0  0  0  0  0
  -14.4033  -10.3864   15.7524 C   0  0  0  0  0  0  0  0  0  0  0  0
  -15.5470   -9.7964   15.5238 O   0  0  0  0  0  0  0  0  0  0  0  0
  -12.2520  -16.1837   19.5018 N   0  0  0  0  0  0  0  0  0  0  0  0
  -12.0489  -18.2965   19.8075 C   0  0  0  0  0  0  0  0  0  0  0  0
  -11.6837  -20.1189   20.8330 C   0  0  0  0  0  0  0  0  0  0  0  0
  -11.4245  -20.6236   22.2328 C   0  0  0  0  0  0  0  0  0  0  0  0
  -11.5623  -21.9252   22.8298 C   0  0  0  0  0  0  0  0  0  0  0  0
  -11.7312  -23.0000   22.0423 C   0  0  0  0  0  0  0  0  0  0  0  0
  -11.6849  -22.6519   20.7367 C   0  0  0  0  0  0  0  0  0  0  0  0
  -11.6354  -21.3411   20.2242 N   0  0  0  0  0  0  0  0  0  0  0  0
  -14.4708  -13.8132   17.0048 H   0  0  0  0  0  0  0  0  0  0  0  0
  -15.0875  -13.2349   18.4292 H   0  0  0  0  0  0  0  0  0  0  0  0
  -11.7333  -10.2294   14.8879 H   0  0  0  0  0  0  0  0  0  0  0  0
  -15.1568   -9.9790   13.0933 H   0  0  0  0  0  0  0  0  0  0  0  0
  -13.6467  -10.9032   12.7504 H   0  0  0  0  0  0  0  0  0  0  0  0
  -14.0520   -9.1848   11.1944 H   0  0  0  0  0  0  0  0  0  0  0  0
  -12.4814   -9.2819   12.0600 H   0  0  0  0  0  0  0  0  0  0  0  0
  -14.6428   -6.7656   11.1507 H   0  0  0  0  0  0  0  0  0  0  0  0
  -15.3761   -4.8141   12.5292 H   0  0  0  0  0  0  0  0  0  0  0  0
  -14.7334   -4.7509   14.9033 H   0  0  0  0  0  0  0  0  0  0  0  0
  -13.8138   -6.5551   15.9805 H   0  0  0  0  0  0  0  0  0  0  0  0
  -11.5135  -15.5772   19.7496 H   0  0  0  0  0  0  0  0  0  0  0  0
  -12.7565  -19.0071   19.2323 H   0  0  0  0  0  0  0  0  0  0  0  0
  -11.4098  -18.2568   18.8147 H   0  0  0  0  0  0  0  0  0  0  0  0
  -10.9514  -20.1001   23.0431 H   0  0  0  0  0  0  0  0  0  0  0  0
  -11.4935  -22.0244   23.9046 H   0  0  0  0  0  0  0  0  0  0  0  0
  -11.8079  -24.0140   22.3961 H   0  0  0  0  0  0  0  0  0  0  0  0
  -11.7336  -23.4187   19.9739 H   0  0  0  0  0  0  0  0  0  0  0  0
  1  2  2  0
  2  3  1  0
  3  4  1  0
  4  5  1  0
  5  6  2  0
  5  7  1  0
  7  8  1  0
  8  9  1  0
  9 10  1  0
 10 11  1  0
 11 12  2  0
 12 13  1  0
 13 14  2  0
 14 15  1  0
 15 16  2  0
  8 17  1  0
 17 18  2  0
  2 19  1  0
 19 20  1  0
 20 21  1  0
 21 22  2  0
 22 23  1  0
 23 24  2  0
 24 25  1  0
 25 26  2  0
 17  4  1  0
 26 21  1  0
 16  8  1  0
 16 11  1  0
  3 27  1  0
  3 28  1  0
  7 29  1  0
  9 30  1  0
  9 31  1  0
 10 32  1  0
 10 33  1  0
 12 34  1  0
 13 35  1  0
 14 36  1  0
 15 37  1  0
 19 38  1  0
 20 39  1  0
 20 40  1  0
 22 41  1  0
 23 42  1  0
 24 43  1  0
 25 44  1  0
M  END
>  <Energy>  (583) 
1059.691282615644

>  <compound_id>  (583) 
37520

>  <target_id>  (583) 
1

>  <reference_id>  (583) 
51

>  <inspiration_ids>  (583) 
[51, 82]

>  <energy_score>  (583) 
1036.000494835661

>  <distance_score>  (583) 
11.99284741149956

>  <path>  (583) 
/opt/xchem-fragalysis-2/maxwin/BulkDock/SCRATCH/511025/C37520-P51/C37520-P51.minimised.mol

>  <scratch_subdir>  (583) 
/opt/xchem-fragalysis-2/maxwin/BulkDock/SCRATCH/511025/C37520-P51

>  <fragmenstein_runtime>  (583) 
31.908942461013794

>  <fragmenstein_outcome>  (583) 
too moved

>  <fragmenstein_mode>  (583) 
expansion

>  <fragmenstein_error>  (583) 


$$$$
C37520-P82
     RDKit          3D

 44 47  0  0  0  0  0  0  0  0999 V2000
  -10.9826  -15.2375   19.5882 O   0  0  0  0  0  0  0  0  0  0  0  0
  -10.1427  -14.7311   18.8483 C   0  0  0  0  0  0  0  0  0  0  0  0
  -10.1949  -12.7978   17.7138 C   0  0  0  0  0  0  0  0  0  0  0  0
  -10.1586  -12.3011   15.5962 N   0  0  0  0  0  0  0  0  0  0  0  0
   -9.5192  -13.1823   14.4850 C   0  0  0  0  0  0  0  0  0  0  0  0
   -9.7291  -14.3254   14.0939 O   0  0  0  0  0  0  0  0  0  0  0  0
   -8.6834  -12.5509   13.5634 N   0  0  0  0  0  0  0  0  0  0  0  0
   -8.9653  -11.2388   13.2217 C   0  0  0  0  0  0  0  0  0  0  0  0
   -9.7615  -11.1382   11.8715 C   0  0  0  0  0  0  0  0  0  0  0  0
   -8.7557  -10.9879   10.7204 C   0  0  0  0  0  0  0  0  0  0  0  0
   -7.6824  -10.2104   11.3889 C   0  0  0  0  0  0  0  0  0  0  0  0
   -6.7095   -9.4493   10.7352 C   0  0  0  0  0  0  0  0  0  0  0  0
   -5.8483   -8.6759   11.5020 C   0  0  0  0  0  0  0  0  0  0  0  0
   -5.9841   -8.6705   12.8892 C   0  0  0  0  0  0  0  0  0  0  0  0
   -6.9554   -9.4689   13.5254 C   0  0  0  0  0  0  0  0  0  0  0  0
   -7.8023  -10.2941   12.7918 C   0  0  0  0  0  0  0  0  0  0  0  0
   -9.7387  -10.9749   14.5532 C   0  0  0  0  0  0  0  0  0  0  0  0
  -10.0587   -9.7828   14.5627 O   0  0  0  0  0  0  0  0  0  0  0  0
   -8.4938  -15.4393   18.1875 N   0  0  0  0  0  0  0  0  0  0  0  0
   -7.7913  -16.9727   18.3013 C   0  0  0  0  0  0  0  0  0  0  0  0
   -6.6276  -17.8739   19.2701 C   0  0  0  0  0  0  0  0  0  0  0  0
   -6.2462  -19.1323   18.7904 C   0  0  0  0  0  0  0  0  0  0  0  0
   -5.8917  -20.1523   19.6948 C   0  0  0  0  0  0  0  0  0  0  0  0
   -5.8969  -19.9171   21.0621 C   0  0  0  0  0  0  0  0  0  0  0  0
   -6.2081  -18.6418   21.4655 C   0  0  0  0  0  0  0  0  0  0  0  0
   -6.5391  -17.6340   20.6071 N   0  0  0  0  0  0  0  0  0  0  0  0
  -10.8777  -12.0441   18.0990 H   0  0  0  0  0  0  0  0  0  0  0  0
   -9.1785  -12.4825   18.0332 H   0  0  0  0  0  0  0  0  0  0  0  0
   -8.3762  -13.1772   12.8300 H   0  0  0  0  0  0  0  0  0  0  0  0
  -10.4142  -10.2573   11.8893 H   0  0  0  0  0  0  0  0  0  0  0  0
  -10.3939  -12.0037   11.6482 H   0  0  0  0  0  0  0  0  0  0  0  0
   -8.3749  -11.9608   10.3935 H   0  0  0  0  0  0  0  0  0  0  0  0
   -9.2015  -10.4566    9.8745 H   0  0  0  0  0  0  0  0  0  0  0  0
   -6.6583   -9.4182    9.6514 H   0  0  0  0  0  0  0  0  0  0  0  0
   -5.1113   -8.0375   11.0276 H   0  0  0  0  0  0  0  0  0  0  0  0
   -5.3342   -8.0389   13.4887 H   0  0  0  0  0  0  0  0  0  0  0  0
   -7.0224   -9.4117   14.6035 H   0  0  0  0  0  0  0  0  0  0  0  0
   -7.9810  -14.7470   17.6674 H   0  0  0  0  0  0  0  0  0  0  0  0
   -7.1486  -16.9141   17.3779 H   0  0  0  0  0  0  0  0  0  0  0  0
   -8.3637  -17.5969   17.5794 H   0  0  0  0  0  0  0  0  0  0  0  0
   -6.3130  -19.3616   17.7355 H   0  0  0  0  0  0  0  0  0  0  0  0
   -5.6509  -21.1427   19.3179 H   0  0  0  0  0  0  0  0  0  0  0  0
   -5.6618  -20.6927   21.7786 H   0  0  0  0  0  0  0  0  0  0  0  0
   -6.2236  -18.3747   22.5175 H   0  0  0  0  0  0  0  0  0  0  0  0
  1  2  2  0
  2  3  1  0
  3  4  1  0
  4  5  1  0
  5  6  2  0
  5  7  1  0
  7  8  1  0
  8  9  1  0
  9 10  1  0
 10 11  1  0
 11 12  2  0
 12 13  1  0
 13 14  2  0
 14 15  1  0
 15 16  2  0
  8 17  1  0
 17 18  2  0
  2 19  1  0
 19 20  1  0
 20 21  1  0
 21 22  2  0
 22 23  1  0
 23 24  2  0
 24 25  1  0
 25 26  2  0
 17  4  1  0
 26 21  1  0
 16  8  1  0
 16 11  1  0
  3 27  1  0
  3 28  1  0
  7 29  1  0
  9 30  1  0
  9 31  1  0
 10 32  1  0
 10 33  1  0
 12 34  1  0
 13 35  1  0
 14 36  1  0
 15 37  1  0
 19 38  1  0
 20 39  1  0
 20 40  1  0
 22 41  1  0
 23 42  1  0
 24 43  1  0
 25 44  1  0
M  END
>  <Energy>  (584) 
600.16441119989827

>  <compound_id>  (584) 
37520

>  <target_id>  (584) 
1

>  <reference_id>  (584) 
82

>  <inspiration_ids>  (584) 
[51, 82]

>  <energy_score>  (584) 
576.4736234198961

>  <distance_score>  (584) 
12.541207382846418

>  <path>  (584) 
/opt/xchem-fragalysis-2/maxwin/BulkDock/SCRATCH/511025/C37520-P82/C37520-P82.minimised.mol

>  <scratch_subdir>  (584) 
/opt/xchem-fragalysis-2/maxwin/BulkDock/SCRATCH/511025/C37520-P82

>  <fragmenstein_runtime>  (584) 
29.526387214660645

>  <fragmenstein_outcome>  (584) 
too moved

>  <fragmenstein_mode>  (584) 
expansion

>  <fragmenstein_error>  (584) 


$$$$
C57525-P51
     RDKit          3D

 55 59  0  0  0  0  0  0  0  0999 V2000
  -13.2713  -16.1667   20.7111 C   0  0  0  0  0  0  0  0  0  0  0  0
  -14.3083  -16.8327   20.1694 C   0  0  0  0  0  0  0  0  0  0  0  0
  -14.1946  -18.4610   19.3952 C   0  0  0  0  0  0  0  0  0  0  0  0
  -13.2575  -19.0224   17.5739 N   0  0  0  0  0  0  0  0  0  0  0  0
  -11.9568  -18.1780   16.5013 C   0  0  0  0  0  0  0  0  0  0  0  0
  -11.5642  -17.2504   17.0349 O   0  0  0  0  0  0  0  0  0  0  0  0
  -11.1329  -18.2900   14.5506 C   0  0  0  0  0  0  0  0  0  0  0  0
  -10.6405  -16.7969   13.2920 N   0  0  0  0  0  0  0  0  0  0  0  0
  -10.5223  -16.7326   11.9440 C   0  0  0  0  0  0  0  0  0  0  0  0
   -9.7021  -17.3555   11.2647 O   0  0  0  0  0  0  0  0  0  0  0  0
  -11.2743  -15.5441   11.3681 N   0  0  0  0  0  0  0  0  0  0  0  0
  -10.2357  -14.6173   11.4570 C   0  0  0  0  0  0  0  0  0  0  0  0
   -9.5825  -14.8872   10.0054 C   0  0  0  0  0  0  0  0  0  0  0  0
  -10.1632  -13.8171    9.0603 C   0  0  0  0  0  0  0  0  0  0  0  0
   -9.9773  -12.6469    9.9554 C   0  0  0  0  0  0  0  0  0  0  0  0
   -9.4911  -11.4037    9.5088 C   0  0  0  0  0  0  0  0  0  0  0  0
   -8.9429  -10.5298   10.4326 C   0  0  0  0  0  0  0  0  0  0  0  0
   -8.8945  -10.9180   11.7705 C   0  0  0  0  0  0  0  0  0  0  0  0
   -9.4158  -12.1714   12.1928 C   0  0  0  0  0  0  0  0  0  0  0  0
  -10.0461  -13.0635   11.3098 C   0  0  0  0  0  0  0  0  0  0  0  0
  -10.2484  -15.3332   13.1659 C   0  0  0  0  0  0  0  0  0  0  0  0
   -9.8295  -14.5307   13.9978 O   0  0  0  0  0  0  0  0  0  0  0  0
  -12.4999  -20.2861   18.6711 C   0  0  0  0  0  0  0  0  0  0  0  0
  -13.0746  -21.8056   18.6824 N   0  0  0  0  0  0  0  0  0  0  0  0
  -13.0384  -22.6966   19.9921 C   0  0  0  0  0  0  0  0  0  0  0  0
  -12.3144  -22.1582   21.0488 C   0  0  0  0  0  0  0  0  0  0  0  0
  -11.3718  -20.8824   20.5459 S   0  0  0  0  0  0  0  0  0  0  0  0
  -12.6222  -22.2129   22.5641 C   0  0  0  0  0  0  0  0  0  0  0  0
  -14.0858  -22.6726   22.8391 C   0  0  0  0  0  0  0  0  0  0  0  0
  -14.9432  -23.0861   21.6049 C   0  0  0  0  0  0  0  0  0  0  0  0
  -14.2148  -23.5896   20.3192 C   0  0  0  0  0  0  0  0  0  0  0  0
  -12.4538  -15.8716   20.0993 H   0  0  0  0  0  0  0  0  0  0  0  0
  -13.4825  -15.8089   21.6943 H   0  0  0  0  0  0  0  0  0  0  0  0
  -15.2149  -16.5582   20.6659 H   0  0  0  0  0  0  0  0  0  0  0  0
  -15.2041  -18.3562   19.1145 H   0  0  0  0  0  0  0  0  0  0  0  0
  -14.9053  -19.3280   19.7386 H   0  0  0  0  0  0  0  0  0  0  0  0
  -10.9362  -19.2420   14.0379 H   0  0  0  0  0  0  0  0  0  0  0  0
  -12.0530  -18.2717   14.0892 H   0  0  0  0  0  0  0  0  0  0  0  0
  -12.0960  -15.2086   11.8493 H   0  0  0  0  0  0  0  0  0  0  0  0
   -8.4896  -14.7870    9.9944 H   0  0  0  0  0  0  0  0  0  0  0  0
   -9.7957  -15.8633    9.5544 H   0  0  0  0  0  0  0  0  0  0  0  0
   -9.5848  -13.7521    8.1343 H   0  0  0  0  0  0  0  0  0  0  0  0
  -11.2214  -13.9849    8.8380 H   0  0  0  0  0  0  0  0  0  0  0  0
   -9.4524  -11.1780    8.4494 H   0  0  0  0  0  0  0  0  0  0  0  0
   -8.5088   -9.5894   10.1154 H   0  0  0  0  0  0  0  0  0  0  0  0
   -8.4185  -10.2695   12.5027 H   0  0  0  0  0  0  0  0  0  0  0  0
   -9.2376  -12.4488   13.2297 H   0  0  0  0  0  0  0  0  0  0  0  0
  -11.8978  -22.8041   23.1235 H   0  0  0  0  0  0  0  0  0  0  0  0
  -12.4223  -21.2581   23.0450 H   0  0  0  0  0  0  0  0  0  0  0  0
  -14.0771  -23.5006   23.5566 H   0  0  0  0  0  0  0  0  0  0  0  0
  -14.6243  -21.8866   23.3818 H   0  0  0  0  0  0  0  0  0  0  0  0
  -15.6730  -23.8430   21.9174 H   0  0  0  0  0  0  0  0  0  0  0  0
  -15.5402  -22.2101   21.3168 H   0  0  0  0  0  0  0  0  0  0  0  0
  -13.8967  -24.6301   20.4173 H   0  0  0  0  0  0  0  0  0  0  0  0
  -14.9433  -23.6417   19.5192 H   0  0  0  0  0  0  0  0  0  0  0  0
  1  2  2  0
  2  3  1  0
  3  4  1  0
  4  5  1  0
  5  6  2  0
  5  7  1  0
  7  8  1  0
  8  9  1  0
  9 10  2  0
  9 11  1  0
 11 12  1  0
 12 13  1  0
 13 14  1  0
 14 15  1  0
 15 16  2  0
 16 17  1  0
 17 18  2  0
 18 19  1  0
 19 20  2  0
 12 21  1  0
 21 22  2  0
  4 23  1  0
 23 24  2  0
 24 25  1  0
 25 26  2  0
 26 27  1  0
 26 28  1  0
 28 29  1  0
 29 30  1  0
 30 31  1  0
 21  8  1  0
 27 23  1  0
 20 12  1  0
 31 25  1  0
 20 15  1  0
  1 32  1  0
  1 33  1  0
  2 34  1  0
  3 35  1  0
  3 36  1  0
  7 37  1  0
  7 38  1  0
 11 39  1  0
 13 40  1  0
 13 41  1  0
 14 42  1  0
 14 43  1  0
 16 44  1  0
 17 45  1  0
 18 46  1  0
 19 47  1  0
 28 48  1  0
 28 49  1  0
 29 50  1  0
 29 51  1  0
 30 52  1  0
 30 53  1  0
 31 54  1  0
 31 55  1  0
M  END
>  <Energy>  (585) 
973.66954745875023

>  <compound_id>  (585) 
57525

>  <target_id>  (585) 
1

>  <reference_id>  (585) 
51

>  <inspiration_ids>  (585) 
[51, 82]

>  <energy_score>  (585) 
913.2650033064455

>  <distance_score>  (585) 
12.612872144992268

>  <path>  (585) 
/opt/xchem-fragalysis-2/maxwin/BulkDock/SCRATCH/511025/C57525-P51/C57525-P51.minimised.mol

>  <scratch_subdir>  (585) 
/opt/xchem-fragalysis-2/maxwin/BulkDock/SCRATCH/511025/C57525-P51

>  <fragmenstein_runtime>  (585) 
41.32282495498657

>  <fragmenstein_outcome>  (585) 
too moved

>  <fragmenstein_mode>  (585) 
expansion

>  <fragmenstein_error>  (585) 


$$$$
C57525-P82
     RDKit          3D

 55 59  0  0  0  0  0  0  0  0999 V2000
  -13.5820  -16.0682   20.8823 C   0  0  0  0  0  0  0  0  0  0  0  0
  -12.4659  -15.2423   20.7141 C   0  0  0  0  0  0  0  0  0  0  0  0
  -11.2076  -14.2071   22.2176 C   0  0  0  0  0  0  0  0  0  0  0  0
  -11.4915  -14.0702   21.1143 N   0  0  0  0  0  0  0  0  0  0  0  0
  -10.4174  -13.5195   19.4478 C   0  0  0  0  0  0  0  0  0  0  0  0
   -9.2947  -13.2127   19.7798 O   0  0  0  0  0  0  0  0  0  0  0  0
  -10.6808  -12.9453   17.4328 C   0  0  0  0  0  0  0  0  0  0  0  0
  -10.3967  -12.4485   15.4527 N   0  0  0  0  0  0  0  0  0  0  0  0
   -9.8254  -13.1877   14.2438 C   0  0  0  0  0  0  0  0  0  0  0  0
   -9.7143  -14.3562   13.9290 O   0  0  0  0  0  0  0  0  0  0  0  0
   -9.5446  -12.1436   13.1324 N   0  0  0  0  0  0  0  0  0  0  0  0
   -9.3478  -10.7965   13.6593 C   0  0  0  0  0  0  0  0  0  0  0  0
   -8.1807  -10.1756   12.9443 C   0  0  0  0  0  0  0  0  0  0  0  0
   -7.9772   -8.9363   13.7688 C   0  0  0  0  0  0  0  0  0  0  0  0
   -9.3973   -8.3332   14.0843 C   0  0  0  0  0  0  0  0  0  0  0  0
   -9.8800   -6.6289   14.3401 C   0  0  0  0  0  0  0  0  0  0  0  0
  -11.2571   -6.2848   14.4622 C   0  0  0  0  0  0  0  0  0  0  0  0
  -12.1761   -7.3825   14.1646 C   0  0  0  0  0  0  0  0  0  0  0  0
  -11.7593   -8.8578   13.9987 C   0  0  0  0  0  0  0  0  0  0  0  0
  -10.2824   -9.3935   13.9083 C   0  0  0  0  0  0  0  0  0  0  0  0
   -9.3722  -11.6912   14.9168 C   0  0  0  0  0  0  0  0  0  0  0  0
   -8.4153  -11.8336   15.6324 O   0  0  0  0  0  0  0  0  0  0  0  0
  -11.7819  -15.8518   22.1745 C   0  0  0  0  0  0  0  0  0  0  0  0
  -12.9754  -15.8847   23.2190 N   0  0  0  0  0  0  0  0  0  0  0  0
  -13.2218  -16.0654   24.6897 C   0  0  0  0  0  0  0  0  0  0  0  0
  -12.0470  -16.0960   25.3172 C   0  0  0  0  0  0  0  0  0  0  0  0
  -11.0673  -17.0015   24.1469 S   0  0  0  0  0  0  0  0  0  0  0  0
  -11.7658  -15.7263   26.7957 C   0  0  0  0  0  0  0  0  0  0  0  0
  -13.0674  -15.3344   27.5301 C   0  0  0  0  0  0  0  0  0  0  0  0
  -14.3575  -15.9591   26.9901 C   0  0  0  0  0  0  0  0  0  0  0  0
  -14.5046  -15.8008   25.4757 C   0  0  0  0  0  0  0  0  0  0  0  0
  -14.2213  -16.0027   21.7288 H   0  0  0  0  0  0  0  0  0  0  0  0
  -14.1232  -16.6363   20.1341 H   0  0  0  0  0  0  0  0  0  0  0  0
  -12.0729  -15.6821   19.7796 H   0  0  0  0  0  0  0  0  0  0  0  0
  -11.7404  -14.2188   23.0903 H   0  0  0  0  0  0  0  0  0  0  0  0
  -10.9621  -13.1606   22.0141 H   0  0  0  0  0  0  0  0  0  0  0  0
  -11.2164  -11.9788   17.6365 H   0  0  0  0  0  0  0  0  0  0  0  0
   -9.7355  -12.4107   17.7020 H   0  0  0  0  0  0  0  0  0  0  0  0
   -9.0848  -12.4940   12.3020 H   0  0  0  0  0  0  0  0  0  0  0  0
   -8.4392   -9.9350   11.9058 H   0  0  0  0  0  0  0  0  0  0  0  0
   -7.2842  -10.8025   12.9209 H   0  0  0  0  0  0  0  0  0  0  0  0
   -7.2065   -8.2854   13.3539 H   0  0  0  0  0  0  0  0  0  0  0  0
   -7.6370   -9.3948   14.6754 H   0  0  0  0  0  0  0  0  0  0  0  0
   -9.1026   -5.8735   14.5196 H   0  0  0  0  0  0  0  0  0  0  0  0
  -11.5711   -5.2652   14.6272 H   0  0  0  0  0  0  0  0  0  0  0  0
  -13.1629   -7.1656   13.7352 H   0  0  0  0  0  0  0  0  0  0  0  0
  -12.6167   -9.5243   14.0823 H   0  0  0  0  0  0  0  0  0  0  0  0
  -11.2087  -16.5037   27.3312 H   0  0  0  0  0  0  0  0  0  0  0  0
  -11.1269  -14.8614   26.9335 H   0  0  0  0  0  0  0  0  0  0  0  0
  -12.9562  -15.5345   28.6009 H   0  0  0  0  0  0  0  0  0  0  0  0
  -13.1794  -14.2440   27.4453 H   0  0  0  0  0  0  0  0  0  0  0  0
  -15.2150  -15.4843   27.4846 H   0  0  0  0  0  0  0  0  0  0  0  0
  -14.4419  -17.0101   27.2392 H   0  0  0  0  0  0  0  0  0  0  0  0
  -14.8490  -14.7716   25.3785 H   0  0  0  0  0  0  0  0  0  0  0  0
  -15.3316  -16.4212   25.1499 H   0  0  0  0  0  0  0  0  0  0  0  0
  1  2  2  0
  2  3  1  0
  3  4  1  0
  4  5  1  0
  5  6  2  0
  5  7  1  0
  7  8  1  0
  8  9  1  0
  9 10  2  0
  9 11  1  0
 11 12  1  0
 12 13  1  0
 13 14  1  0
 14 15  1  0
 15 16  2  0
 16 17  1  0
 17 18  2  0
 18 19  1  0
 19 20  2  0
 12 21  1  0
 21 22  2  0
  4 23  1  0
 23 24  2  0
 24 25  1  0
 25 26  2  0
 26 27  1  0
 26 28  1  0
 28 29  1  0
 29 30  1  0
 30 31  1  0
 21  8  1  0
 27 23  1  0
 20 12  1  0
 31 25  1  0
 20 15  1  0
  1 32  1  0
  1 33  1  0
  2 34  1  0
  3 35  1  0
  3 36  1  0
  7 37  1  0
  7 38  1  0
 11 39  1  0
 13 40  1  0
 13 41  1  0
 14 42  1  0
 14 43  1  0
 16 44  1  0
 17 45  1  0
 18 46  1  0
 19 47  1  0
 28 48  1  0
 28 49  1  0
 29 50  1  0
 29 51  1  0
 30 52  1  0
 30 53  1  0
 31 54  1  0
 31 55  1  0
M  END
>  <Energy>  (586) 
1809.1388741269921

>  <compound_id>  (586) 
57525

>  <target_id>  (586) 
1

>  <reference_id>  (586) 
82

>  <inspiration_ids>  (586) 
[51, 82]

>  <energy_score>  (586) 
1748.734329974724

>  <distance_score>  (586) 
11.486321067847415

>  <path>  (586) 
/opt/xchem-fragalysis-2/maxwin/BulkDock/SCRATCH/511025/C57525-P82/C57525-P82.minimised.mol

>  <scratch_subdir>  (586) 
/opt/xchem-fragalysis-2/maxwin/BulkDock/SCRATCH/511025/C57525-P82

>  <fragmenstein_runtime>  (586) 
65.87176513671875

>  <fragmenstein_outcome>  (586) 
too moved

>  <fragmenstein_mode>  (586) 
expansion

>  <fragmenstein_error>  (586) 


$$$$
C37521-P51
     RDKit          3D

 47 50  0  0  0  0  0  0  0  0999 V2000
   -8.1920   -3.1095   16.9268 O   0  0  0  0  0  0  0  0  0  0  0  0
   -8.7209   -4.1824   16.7819 C   0  0  0  0  0  0  0  0  0  0  0  0
   -8.6725   -4.7825   15.2049 C   0  0  0  0  0  0  0  0  0  0  0  0
   -9.2440   -4.4054   13.8460 N   0  0  0  0  0  0  0  0  0  0  0  0
  -10.2574   -5.1030   13.4184 C   0  0  0  0  0  0  0  0  0  0  0  0
  -11.0019   -5.7466   14.1528 O   0  0  0  0  0  0  0  0  0  0  0  0
  -10.2374   -5.0796   11.8259 N   0  0  0  0  0  0  0  0  0  0  0  0
   -9.7250   -4.0800   11.0368 C   0  0  0  0  0  0  0  0  0  0  0  0
   -9.0501   -4.1745    9.3216 C   0  0  0  0  0  0  0  0  0  0  0  0
   -8.9465   -2.7451    8.6634 C   0  0  0  0  0  0  0  0  0  0  0  0
   -9.7165   -1.7307    9.5141 C   0  0  0  0  0  0  0  0  0  0  0  0
  -10.0224   -0.4695    9.0082 C   0  0  0  0  0  0  0  0  0  0  0  0
  -10.9297    0.3039    9.7109 C   0  0  0  0  0  0  0  0  0  0  0  0
  -11.5142   -0.1863   10.8908 C   0  0  0  0  0  0  0  0  0  0  0  0
  -11.1580   -1.4335   11.4709 C   0  0  0  0  0  0  0  0  0  0  0  0
  -10.2171   -2.2444   10.8445 C   0  0  0  0  0  0  0  0  0  0  0  0
   -8.6804   -4.6210   12.6350 C   0  0  0  0  0  0  0  0  0  0  0  0
   -7.6059   -5.2430   12.6498 O   0  0  0  0  0  0  0  0  0  0  0  0
   -9.3176   -5.1095   17.7830 N   0  0  0  0  0  0  0  0  0  0  0  0
   -9.3543   -5.0443   19.3129 C   0  0  0  0  0  0  0  0  0  0  0  0
  -10.5721   -5.6253   20.1660 C   0  0  0  0  0  0  0  0  0  0  0  0
  -10.5609   -6.7341   21.3272 C   0  0  0  0  0  0  0  0  0  0  0  0
  -11.7998   -7.2808   21.7410 C   0  0  0  0  0  0  0  0  0  0  0  0
  -11.9293   -8.0772   22.9001 C   0  0  0  0  0  0  0  0  0  0  0  0
  -10.8265   -8.2899   23.7005 C   0  0  0  0  0  0  0  0  0  0  0  0
   -9.6446   -7.7222   23.2616 C   0  0  0  0  0  0  0  0  0  0  0  0
   -9.4662   -7.0059   22.0851 N   0  0  0  0  0  0  0  0  0  0  0  0
   -7.5865   -4.7024   15.0301 H   0  0  0  0  0  0  0  0  0  0  0  0
   -8.8019   -5.8558   15.2970 H   0  0  0  0  0  0  0  0  0  0  0  0
  -10.8617   -5.5895   11.2500 H   0  0  0  0  0  0  0  0  0  0  0  0
   -8.0726   -4.6646    9.2020 H   0  0  0  0  0  0  0  0  0  0  0  0
   -9.6405   -4.7752    8.7035 H   0  0  0  0  0  0  0  0  0  0  0  0
   -9.3789   -2.7871    7.6559 H   0  0  0  0  0  0  0  0  0  0  0  0
   -7.9044   -2.4273    8.5559 H   0  0  0  0  0  0  0  0  0  0  0  0
   -9.6231   -0.1346    8.0572 H   0  0  0  0  0  0  0  0  0  0  0  0
  -11.2178    1.2803    9.3316 H   0  0  0  0  0  0  0  0  0  0  0  0
  -12.2457    0.4346   11.4056 H   0  0  0  0  0  0  0  0  0  0  0  0
  -11.6718   -1.7015   12.3815 H   0  0  0  0  0  0  0  0  0  0  0  0
   -9.7472   -5.8811   17.3028 H   0  0  0  0  0  0  0  0  0  0  0  0
   -9.2208   -3.9848   19.5598 H   0  0  0  0  0  0  0  0  0  0  0  0
   -8.4423   -5.5607   19.6300 H   0  0  0  0  0  0  0  0  0  0  0  0
  -11.3448   -5.8778   19.4472 H   0  0  0  0  0  0  0  0  0  0  0  0
  -10.9722   -4.7493   20.6990 H   0  0  0  0  0  0  0  0  0  0  0  0
  -12.7073   -7.0624   21.1828 H   0  0  0  0  0  0  0  0  0  0  0  0
  -12.9008   -8.4869   23.1644 H   0  0  0  0  0  0  0  0  0  0  0  0
  -10.8826   -8.8554   24.6215 H   0  0  0  0  0  0  0  0  0  0  0  0
   -8.7554   -7.8132   23.8778 H   0  0  0  0  0  0  0  0  0  0  0  0
  1  2  2  0
  2  3  1  0
  3  4  1  0
  4  5  1  0
  5  6  2  0
  5  7  1  0
  7  8  1  0
  8  9  1  0
  9 10  1  0
 10 11  1  0
 11 12  2  0
 12 13  1  0
 13 14  2  0
 14 15  1  0
 15 16  2  0
  8 17  1  0
 17 18  2  0
  2 19  1  0
 19 20  1  0
 20 21  1  0
 21 22  1  0
 22 23  2  0
 23 24  1  0
 24 25  2  0
 25 26  1  0
 26 27  2  0
 17  4  1  0
 27 22  1  0
 16  8  1  0
 16 11  1  0
  3 28  1  0
  3 29  1  0
  7 30  1  0
  9 31  1  0
  9 32  1  0
 10 33  1  0
 10 34  1  0
 12 35  1  0
 13 36  1  0
 14 37  1  0
 15 38  1  0
 19 39  1  0
 20 40  1  0
 20 41  1  0
 21 42  1  0
 21 43  1  0
 23 44  1  0
 24 45  1  0
 25 46  1  0
 26 47  1  0
M  END
>  <Energy>  (587) 
277.91541419352325

>  <compound_id>  (587) 
37521

>  <target_id>  (587) 
1

>  <reference_id>  (587) 
51

>  <inspiration_ids>  (587) 
[51, 82]

>  <energy_score>  (587) 
243.30141041439816

>  <distance_score>  (587) 
12.381540385350057

>  <path>  (587) 
/opt/xchem-fragalysis-2/maxwin/BulkDock/SCRATCH/511025/C37521-P51/C37521-P51.minimised.mol

>  <scratch_subdir>  (587) 
/opt/xchem-fragalysis-2/maxwin/BulkDock/SCRATCH/511025/C37521-P51

>  <fragmenstein_runtime>  (587) 
40.997580766677856

>  <fragmenstein_outcome>  (587) 
too moved

>  <fragmenstein_mode>  (587) 
expansion

>  <fragmenstein_error>  (587) 


$$$$
C37521-P82
     RDKit          3D

 47 50  0  0  0  0  0  0  0  0999 V2000
   -6.8597  -12.5053   12.7605 O   0  0  0  0  0  0  0  0  0  0  0  0
   -8.0369  -12.6288   12.9990 C   0  0  0  0  0  0  0  0  0  0  0  0
   -9.0460  -11.3714   11.9153 C   0  0  0  0  0  0  0  0  0  0  0  0
   -8.6964  -10.2096   10.4505 N   0  0  0  0  0  0  0  0  0  0  0  0
   -9.5280   -9.9881    9.4426 C   0  0  0  0  0  0  0  0  0  0  0  0
  -10.5764  -10.6020    9.2996 O   0  0  0  0  0  0  0  0  0  0  0  0
   -9.1546   -8.9616    8.5513 N   0  0  0  0  0  0  0  0  0  0  0  0
   -7.8922   -7.9615    8.4645 C   0  0  0  0  0  0  0  0  0  0  0  0
   -6.7930   -7.4245    9.3827 C   0  0  0  0  0  0  0  0  0  0  0  0
   -6.8619   -5.6020    9.2582 C   0  0  0  0  0  0  0  0  0  0  0  0
   -7.4190   -4.9967    8.0215 C   0  0  0  0  0  0  0  0  0  0  0  0
   -7.3678   -3.7018    7.4277 C   0  0  0  0  0  0  0  0  0  0  0  0
   -8.2776   -3.3219    6.4655 C   0  0  0  0  0  0  0  0  0  0  0  0
   -9.2242   -4.2443    6.1225 C   0  0  0  0  0  0  0  0  0  0  0  0
   -9.1359   -5.5620    6.6469 C   0  0  0  0  0  0  0  0  0  0  0  0
   -8.1104   -6.0666    7.5255 C   0  0  0  0  0  0  0  0  0  0  0  0
   -7.8153   -9.1283   10.0982 C   0  0  0  0  0  0  0  0  0  0  0  0
   -6.8960   -9.1607   10.9498 O   0  0  0  0  0  0  0  0  0  0  0  0
   -8.6788  -13.9032   14.1807 N   0  0  0  0  0  0  0  0  0  0  0  0
   -7.7398  -15.3653   15.1746 C   0  0  0  0  0  0  0  0  0  0  0  0
   -7.8084  -16.4143   16.9451 C   0  0  0  0  0  0  0  0  0  0  0  0
   -7.0821  -17.5752   18.3486 C   0  0  0  0  0  0  0  0  0  0  0  0
   -6.6363  -17.3918   19.7456 C   0  0  0  0  0  0  0  0  0  0  0  0
   -6.3112  -18.3740   20.6963 C   0  0  0  0  0  0  0  0  0  0  0  0
   -5.9164  -19.5518   20.2224 C   0  0  0  0  0  0  0  0  0  0  0  0
   -6.1550  -19.6929   18.9301 C   0  0  0  0  0  0  0  0  0  0  0  0
   -6.9378  -18.8528   18.1739 N   0  0  0  0  0  0  0  0  0  0  0  0
   -9.3851  -10.6333   12.6506 H   0  0  0  0  0  0  0  0  0  0  0  0
   -9.8870  -11.9532   11.5264 H   0  0  0  0  0  0  0  0  0  0  0  0
   -9.7554   -9.0033    7.7407 H   0  0  0  0  0  0  0  0  0  0  0  0
   -6.2206   -7.5454   10.3176 H   0  0  0  0  0  0  0  0  0  0  0  0
   -6.0976   -8.1429    8.8963 H   0  0  0  0  0  0  0  0  0  0  0  0
   -5.8629   -5.4169    9.2346 H   0  0  0  0  0  0  0  0  0  0  0  0
   -7.2790   -5.1032   10.0904 H   0  0  0  0  0  0  0  0  0  0  0  0
   -6.6553   -2.9340    7.7049 H   0  0  0  0  0  0  0  0  0  0  0  0
   -8.2773   -2.3251    6.0419 H   0  0  0  0  0  0  0  0  0  0  0  0
  -10.0131   -4.0044    5.4132 H   0  0  0  0  0  0  0  0  0  0  0  0
   -9.8749   -6.2273    6.2197 H   0  0  0  0  0  0  0  0  0  0  0  0
   -9.6894  -13.8867   14.1656 H   0  0  0  0  0  0  0  0  0  0  0  0
   -7.2554  -16.0803   14.5179 H   0  0  0  0  0  0  0  0  0  0  0  0
   -7.0453  -14.6926   15.6487 H   0  0  0  0  0  0  0  0  0  0  0  0
   -6.7999  -16.0158   16.8550 H   0  0  0  0  0  0  0  0  0  0  0  0
   -8.3975  -15.8859   17.6860 H   0  0  0  0  0  0  0  0  0  0  0  0
   -6.9271  -16.5582   20.3543 H   0  0  0  0  0  0  0  0  0  0  0  0
   -6.3344  -18.1611   21.7554 H   0  0  0  0  0  0  0  0  0  0  0  0
   -5.4901  -20.3732   20.7483 H   0  0  0  0  0  0  0  0  0  0  0  0
   -5.7825  -20.5861   18.4390 H   0  0  0  0  0  0  0  0  0  0  0  0
  1  2  2  0
  2  3  1  0
  3  4  1  0
  4  5  1  0
  5  6  2  0
  5  7  1  0
  7  8  1  0
  8  9  1  0
  9 10  1  0
 10 11  1  0
 11 12  2  0
 12 13  1  0
 13 14  2  0
 14 15  1  0
 15 16  2  0
  8 17  1  0
 17 18  2  0
  2 19  1  0
 19 20  1  0
 20 21  1  0
 21 22  1  0
 22 23  2  0
 23 24  1  0
 24 25  2  0
 25 26  1  0
 26 27  2  0
 17  4  1  0
 27 22  1  0
 16  8  1  0
 16 11  1  0
  3 28  1  0
  3 29  1  0
  7 30  1  0
  9 31  1  0
  9 32  1  0
 10 33  1  0
 10 34  1  0
 12 35  1  0
 13 36  1  0
 14 37  1  0
 15 38  1  0
 19 39  1  0
 20 40  1  0
 20 41  1  0
 21 42  1  0
 21 43  1  0
 23 44  1  0
 24 45  1  0
 25 46  1  0
 26 47  1  0
M  END
>  <Energy>  (588) 
914.22132173608418

>  <compound_id>  (588) 
37521

>  <target_id>  (588) 
1

>  <reference_id>  (588) 
82

>  <inspiration_ids>  (588) 
[51, 82]

>  <energy_score>  (588) 
879.6073179569544

>  <distance_score>  (588) 
9.912211947708206

>  <path>  (588) 
/opt/xchem-fragalysis-2/maxwin/BulkDock/SCRATCH/511025/C37521-P82/C37521-P82.minimised.mol

>  <scratch_subdir>  (588) 
/opt/xchem-fragalysis-2/maxwin/BulkDock/SCRATCH/511025/C37521-P82

>  <fragmenstein_runtime>  (588) 
31.673215627670288

>  <fragmenstein_outcome>  (588) 
too moved

>  <fragmenstein_mode>  (588) 
expansion

>  <fragmenstein_error>  (588) 


$$$$
C49527-P122
     RDKit          3D

 43 44  0  0  0  0  0  0  0  0999 V2000
   11.8144   -0.2451   15.9092 C   0  0  0  0  0  0  0  0  0  0  0  0
   10.3799   -0.2652   15.3464 C   0  0  0  0  0  0  0  0  0  0  0  0
   10.4350    0.4762   14.0009 C   0  0  0  0  0  0  0  0  0  0  0  0
    9.8924   -1.6950   15.1206 C   0  0  0  0  0  0  0  0  0  0  0  0
    8.7237   -2.0501   14.9934 O   0  0  0  0  0  0  0  0  0  0  0  0
   10.8791   -2.6249   15.0868 O   0  0  0  0  0  0  0  0  0  0  0  0
    9.4317    0.3745   16.2758 N   0  0  0  0  0  0  0  0  0  0  0  0
    9.1895    1.6982   16.3975 C   0  0  0  0  0  0  0  0  0  0  0  0
    8.2789    1.7889   17.4132 C   0  0  0  0  0  0  0  0  0  0  0  0
    8.0107    0.4409   17.9534 C   0  0  0  0  0  0  0  0  0  0  0  0
    6.9819    0.2277   19.1735 N   0  0  0  0  0  0  0  0  0  0  0  0
    6.9897   -0.7497   20.3753 C   0  0  0  0  0  0  0  0  0  0  0  0
    7.8407   -1.4581   20.6136 O   0  0  0  0  0  0  0  0  0  0  0  0
    5.5528   -0.8827   21.8517 C   0  0  0  0  0  0  0  0  0  0  0  0
    5.0056   -1.8188   23.5992 C   0  0  0  0  0  0  0  0  0  0  0  0
    3.9765   -1.1046   24.8108 C   0  0  0  0  0  0  0  0  0  0  0  0
    3.9183   -1.5731   26.2657 C   0  0  0  0  0  0  0  0  0  0  0  0
    5.2756   -1.3516   26.8456 C   0  0  0  0  0  0  0  0  0  0  0  0
    6.2350   -2.1701   26.0150 C   0  0  0  0  0  0  0  0  0  0  0  0
    5.7614   -2.6230   24.7043 N   0  0  0  0  0  0  0  0  0  0  0  0
    8.7815   -0.3706   17.2128 N   0  0  0  0  0  0  0  0  0  0  0  0
   11.9268   -0.8996   16.7765 H   0  0  0  0  0  0  0  0  0  0  0  0
   12.1188    0.7667   16.1996 H   0  0  0  0  0  0  0  0  0  0  0  0
   12.5381   -0.5992   15.1644 H   0  0  0  0  0  0  0  0  0  0  0  0
   10.7953    1.5053   14.1069 H   0  0  0  0  0  0  0  0  0  0  0  0
   11.1171   -0.0199   13.3020 H   0  0  0  0  0  0  0  0  0  0  0  0
    9.4504    0.5168   13.5362 H   0  0  0  0  0  0  0  0  0  0  0  0
   10.3949   -3.4688   14.9547 H   0  0  0  0  0  0  0  0  0  0  0  0
    9.6502    2.4596   15.7884 H   0  0  0  0  0  0  0  0  0  0  0  0
    7.8366    2.7030   17.7777 H   0  0  0  0  0  0  0  0  0  0  0  0
    6.1343    0.6553   19.1355 H   0  0  0  0  0  0  0  0  0  0  0  0
    4.5719   -0.5229   21.7385 H   0  0  0  0  0  0  0  0  0  0  0  0
    5.5561    0.2257   21.9494 H   0  0  0  0  0  0  0  0  0  0  0  0
    4.1694   -2.4131   23.2585 H   0  0  0  0  0  0  0  0  0  0  0  0
    4.0966   -0.0236   24.8736 H   0  0  0  0  0  0  0  0  0  0  0  0
    2.9710   -1.3867   24.5337 H   0  0  0  0  0  0  0  0  0  0  0  0
    3.6167   -2.6261   26.3312 H   0  0  0  0  0  0  0  0  0  0  0  0
    3.1696   -0.9917   26.8165 H   0  0  0  0  0  0  0  0  0  0  0  0
    5.3076   -1.6595   27.8963 H   0  0  0  0  0  0  0  0  0  0  0  0
    5.5401   -0.2885   26.8097 H   0  0  0  0  0  0  0  0  0  0  0  0
    6.4383   -3.0893   26.5816 H   0  0  0  0  0  0  0  0  0  0  0  0
    7.2097   -1.6742   25.9680 H   0  0  0  0  0  0  0  0  0  0  0  0
    6.3893   -3.3567   24.3730 H   0  0  0  0  0  0  0  0  0  0  0  0
  1  2  1  0
  2  3  1  0
  2  4  1  0
  4  5  2  0
  4  6  1  0
  2  7  1  0
  7  8  1  0
  8  9  2  0
  9 10  1  0
 10 11  1  0
 11 12  1  0
 12 13  2  0
 12 14  1  0
 14 15  1  0
 15 16  1  0
 16 17  1  0
 17 18  1  0
 18 19  1  0
 19 20  1  0
 10 21  2  0
 21  7  1  0
 20 15  1  0
  1 22  1  0
  1 23  1  0
  1 24  1  0
  3 25  1  0
  3 26  1  0
  3 27  1  0
  6 28  1  0
  8 29  1  0
  9 30  1  0
 11 31  1  0
 14 32  1  0
 14 33  1  0
 15 34  1  0
 16 35  1  0
 16 36  1  0
 17 37  1  0
 17 38  1  0
 18 39  1  0
 18 40  1  0
 19 41  1  0
 19 42  1  0
 20 43  1  0
M  END
>  <Energy>  (589) 
304.30263063035795

>  <compound_id>  (589) 
49527

>  <target_id>  (589) 
1

>  <reference_id>  (589) 
122

>  <inspiration_ids>  (589) 
[122, 44]

>  <energy_score>  (589) 
277.3743834586056

>  <distance_score>  (589) 
7.430983853606187

>  <path>  (589) 
/opt/xchem-fragalysis-2/maxwin/BulkDock/SCRATCH/511025/C49527-P122/C49527-P122.minimised.mol

>  <scratch_subdir>  (589) 
/opt/xchem-fragalysis-2/maxwin/BulkDock/SCRATCH/511025/C49527-P122

>  <fragmenstein_runtime>  (589) 
10.463708400726318

>  <fragmenstein_outcome>  (589) 
too moved

>  <fragmenstein_mode>  (589) 
expansion

>  <fragmenstein_error>  (589) 


$$$$
C49527-P44
     RDKit          3D

 43 44  0  0  0  0  0  0  0  0999 V2000
   10.3614   -1.2775   14.8961 C   0  0  0  0  0  0  0  0  0  0  0  0
   10.1543    0.2451   15.0185 C   0  0  0  0  0  0  0  0  0  0  0  0
    9.2815    0.8247   13.8957 C   0  0  0  0  0  0  0  0  0  0  0  0
   11.5185    0.9378   14.9197 C   0  0  0  0  0  0  0  0  0  0  0  0
   11.7282    2.1086   14.6318 O   0  0  0  0  0  0  0  0  0  0  0  0
   12.5764    0.1512   15.2172 O   0  0  0  0  0  0  0  0  0  0  0  0
    9.4892    0.5632   16.2932 N   0  0  0  0  0  0  0  0  0  0  0  0
    9.4663    1.7671   16.8970 C   0  0  0  0  0  0  0  0  0  0  0  0
    8.7484    1.5756   18.0425 C   0  0  0  0  0  0  0  0  0  0  0  0
    8.2010    0.2362   18.0317 C   0  0  0  0  0  0  0  0  0  0  0  0
    7.1155    0.0485   18.9386 N   0  0  0  0  0  0  0  0  0  0  0  0
    6.6667    0.8328   20.1307 C   0  0  0  0  0  0  0  0  0  0  0  0
    7.2878    1.7276   20.5322 O   0  0  0  0  0  0  0  0  0  0  0  0
    4.7663    0.7459   21.2347 C   0  0  0  0  0  0  0  0  0  0  0  0
    4.3226    1.6786   23.0013 C   0  0  0  0  0  0  0  0  0  0  0  0
    4.4186    3.2760   23.4202 C   0  0  0  0  0  0  0  0  0  0  0  0
    3.3390    3.6438   24.4604 C   0  0  0  0  0  0  0  0  0  0  0  0
    3.3466    2.7116   25.6637 C   0  0  0  0  0  0  0  0  0  0  0  0
    4.4556    1.6719   25.5795 C   0  0  0  0  0  0  0  0  0  0  0  0
    4.4257    0.9209   24.3396 N   0  0  0  0  0  0  0  0  0  0  0  0
    8.7296   -0.3542   16.9361 N   0  0  0  0  0  0  0  0  0  0  0  0
    9.4093   -1.8104   14.7977 H   0  0  0  0  0  0  0  0  0  0  0  0
   10.8629   -1.6844   15.7836 H   0  0  0  0  0  0  0  0  0  0  0  0
   10.9993   -1.5339   14.0437 H   0  0  0  0  0  0  0  0  0  0  0  0
    9.8090    0.8075   12.9379 H   0  0  0  0  0  0  0  0  0  0  0  0
    9.0306    1.8777   14.0774 H   0  0  0  0  0  0  0  0  0  0  0  0
    8.3310    0.2881   13.8062 H   0  0  0  0  0  0  0  0  0  0  0  0
   13.3516    0.7532   15.2122 H   0  0  0  0  0  0  0  0  0  0  0  0
    9.9400    2.6547   16.4989 H   0  0  0  0  0  0  0  0  0  0  0  0
    8.5191    2.3737   18.7346 H   0  0  0  0  0  0  0  0  0  0  0  0
    6.4733   -0.7251   18.8243 H   0  0  0  0  0  0  0  0  0  0  0  0
    4.6723   -0.3112   21.6368 H   0  0  0  0  0  0  0  0  0  0  0  0
    3.7737    1.0373   20.9930 H   0  0  0  0  0  0  0  0  0  0  0  0
    3.2437    1.8563   22.8189 H   0  0  0  0  0  0  0  0  0  0  0  0
    5.3810    3.5177   23.8796 H   0  0  0  0  0  0  0  0  0  0  0  0
    4.2809    3.9766   22.5930 H   0  0  0  0  0  0  0  0  0  0  0  0
    2.3485    3.6270   23.9892 H   0  0  0  0  0  0  0  0  0  0  0  0
    3.5005    4.6766   24.7923 H   0  0  0  0  0  0  0  0  0  0  0  0
    2.3723    2.2194   25.7503 H   0  0  0  0  0  0  0  0  0  0  0  0
    3.4680    3.2977   26.5825 H   0  0  0  0  0  0  0  0  0  0  0  0
    4.3428    0.9708   26.4141 H   0  0  0  0  0  0  0  0  0  0  0  0
    5.4352    2.1458   25.7123 H   0  0  0  0  0  0  0  0  0  0  0  0
    5.1350    0.2038   24.2783 H   0  0  0  0  0  0  0  0  0  0  0  0
  1  2  1  0
  2  3  1  0
  2  4  1  0
  4  5  2  0
  4  6  1  0
  2  7  1  0
  7  8  1  0
  8  9  2  0
  9 10  1  0
 10 11  1  0
 11 12  1  0
 12 13  2  0
 12 14  1  0
 14 15  1  0
 15 16  1  0
 16 17  1  0
 17 18  1  0
 18 19  1  0
 19 20  1  0
 10 21  2  0
 21  7  1  0
 20 15  1  0
  1 22  1  0
  1 23  1  0
  1 24  1  0
  3 25  1  0
  3 26  1  0
  3 27  1  0
  6 28  1  0
  8 29  1  0
  9 30  1  0
 11 31  1  0
 14 32  1  0
 14 33  1  0
 15 34  1  0
 16 35  1  0
 16 36  1  0
 17 37  1  0
 17 38  1  0
 18 39  1  0
 18 40  1  0
 19 41  1  0
 19 42  1  0
 20 43  1  0
M  END
>  <Energy>  (590) 
251.19657610036461

>  <compound_id>  (590) 
49527

>  <target_id>  (590) 
1

>  <reference_id>  (590) 
44

>  <inspiration_ids>  (590) 
[122, 44]

>  <energy_score>  (590) 
224.2683289286217

>  <distance_score>  (590) 
6.133690336202487

>  <path>  (590) 
/opt/xchem-fragalysis-2/maxwin/BulkDock/SCRATCH/511025/C49527-P44/C49527-P44.minimised.mol

>  <scratch_subdir>  (590) 
/opt/xchem-fragalysis-2/maxwin/BulkDock/SCRATCH/511025/C49527-P44

>  <fragmenstein_runtime>  (590) 
8.196483373641968

>  <fragmenstein_outcome>  (590) 
too moved

>  <fragmenstein_mode>  (590) 
expansion

>  <fragmenstein_error>  (590) 


$$$$
C49528-P122
     RDKit          3D

 41 42  0  0  0  0  0  0  0  0999 V2000
   10.2939    6.0373   17.7647 C   0  0  0  0  0  0  0  0  0  0  0  0
    9.5872    4.9773   16.8877 C   0  0  0  0  0  0  0  0  0  0  0  0
    9.1834    5.6732   15.5670 C   0  0  0  0  0  0  0  0  0  0  0  0
   10.6059    3.9079   16.5105 C   0  0  0  0  0  0  0  0  0  0  0  0
   11.7833    4.1131   16.2384 O   0  0  0  0  0  0  0  0  0  0  0  0
   10.1444    2.6484   16.3751 O   0  0  0  0  0  0  0  0  0  0  0  0
    8.3728    4.4396   17.5453 N   0  0  0  0  0  0  0  0  0  0  0  0
    7.4080    3.6933   16.9466 C   0  0  0  0  0  0  0  0  0  0  0  0
    6.2309    4.0759   17.5702 C   0  0  0  0  0  0  0  0  0  0  0  0
    6.5574    4.8330   18.7414 C   0  0  0  0  0  0  0  0  0  0  0  0
    5.7746    5.1574   19.9113 N   0  0  0  0  0  0  0  0  0  0  0  0
    4.1772    5.0666   20.1627 C   0  0  0  0  0  0  0  0  0  0  0  0
    3.2994    4.7897   19.4161 O   0  0  0  0  0  0  0  0  0  0  0  0
    3.8661    5.3233   21.7898 C   0  0  0  0  0  0  0  0  0  0  0  0
    2.4071    5.0404   22.6248 C   0  0  0  0  0  0  0  0  0  0  0  0
    2.5845    5.3460   24.1614 C   0  0  0  0  0  0  0  0  0  0  0  0
    1.0930    5.2584   25.2575 S   0  0  0  0  0  0  0  0  0  0  0  0
    0.3835    3.6972   24.6719 C   0  0  0  0  0  0  0  0  0  0  0  0
    0.3808    3.7063   23.1487 C   0  0  0  0  0  0  0  0  0  0  0  0
    1.7214    3.7306   22.5191 N   0  0  0  0  0  0  0  0  0  0  0  0
    7.9050    5.0057   18.7204 N   0  0  0  0  0  0  0  0  0  0  0  0
   11.1920    6.4307   17.2738 H   0  0  0  0  0  0  0  0  0  0  0  0
   10.6119    5.6281   18.7283 H   0  0  0  0  0  0  0  0  0  0  0  0
    9.6380    6.8923   17.9678 H   0  0  0  0  0  0  0  0  0  0  0  0
    8.4285    6.4491   15.7398 H   0  0  0  0  0  0  0  0  0  0  0  0
    8.7712    4.9616   14.8415 H   0  0  0  0  0  0  0  0  0  0  0  0
   10.0480    6.1466   15.0863 H   0  0  0  0  0  0  0  0  0  0  0  0
   10.9652    2.1438   16.1905 H   0  0  0  0  0  0  0  0  0  0  0  0
    7.5758    3.0893   16.0686 H   0  0  0  0  0  0  0  0  0  0  0  0
    5.2401    3.7506   17.2814 H   0  0  0  0  0  0  0  0  0  0  0  0
    6.2300    5.5009   20.7422 H   0  0  0  0  0  0  0  0  0  0  0  0
    4.0620    6.3964   21.9242 H   0  0  0  0  0  0  0  0  0  0  0  0
    4.6538    4.7993   22.3396 H   0  0  0  0  0  0  0  0  0  0  0  0
    1.7306    5.7929   22.1971 H   0  0  0  0  0  0  0  0  0  0  0  0
    3.3275    4.6592   24.5825 H   0  0  0  0  0  0  0  0  0  0  0  0
    2.9907    6.3574   24.2718 H   0  0  0  0  0  0  0  0  0  0  0  0
    0.9698    2.8602   25.0640 H   0  0  0  0  0  0  0  0  0  0  0  0
   -0.6369    3.6062   25.0561 H   0  0  0  0  0  0  0  0  0  0  0  0
   -0.2094    4.5527   22.7710 H   0  0  0  0  0  0  0  0  0  0  0  0
   -0.1628    2.8302   22.7874 H   0  0  0  0  0  0  0  0  0  0  0  0
    2.3241    2.9651   22.8241 H   0  0  0  0  0  0  0  0  0  0  0  0
  1  2  1  0
  2  3  1  0
  2  4  1  0
  4  5  2  0
  4  6  1  0
  2  7  1  0
  7  8  1  0
  8  9  2  0
  9 10  1  0
 10 11  1  0
 11 12  1  0
 12 13  2  0
 12 14  1  0
 14 15  1  0
 15 16  1  0
 16 17  1  0
 17 18  1  0
 18 19  1  0
 19 20  1  0
 10 21  2  0
 21  7  1  0
 20 15  1  0
  1 22  1  0
  1 23  1  0
  1 24  1  0
  3 25  1  0
  3 26  1  0
  3 27  1  0
  6 28  1  0
  8 29  1  0
  9 30  1  0
 11 31  1  0
 14 32  1  0
 14 33  1  0
 15 34  1  0
 16 35  1  0
 16 36  1  0
 18 37  1  0
 18 38  1  0
 19 39  1  0
 19 40  1  0
 20 41  1  0
M  END
>  <Energy>  (591) 
70.42668554631787

>  <compound_id>  (591) 
49528

>  <target_id>  (591) 
1

>  <reference_id>  (591) 
122

>  <inspiration_ids>  (591) 
[122, 44]

>  <energy_score>  (591) 
4.334525866916124

>  <distance_score>  (591) 
7.681692950149395

>  <path>  (591) 
/opt/xchem-fragalysis-2/maxwin/BulkDock/SCRATCH/511025/C49528-P122/C49528-P122.minimised.mol

>  <scratch_subdir>  (591) 
/opt/xchem-fragalysis-2/maxwin/BulkDock/SCRATCH/511025/C49528-P122

>  <fragmenstein_runtime>  (591) 
6.9657652378082275

>  <fragmenstein_outcome>  (591) 
too moved

>  <fragmenstein_mode>  (591) 
expansion

>  <fragmenstein_error>  (591) 


$$$$
C49528-P44
     RDKit          3D

 41 42  0  0  0  0  0  0  0  0999 V2000
    8.3296    2.9814   15.6891 C   0  0  0  0  0  0  0  0  0  0  0  0
    9.0875    1.7113   16.1576 C   0  0  0  0  0  0  0  0  0  0  0  0
    8.6507    0.4349   15.4056 C   0  0  0  0  0  0  0  0  0  0  0  0
   10.5299    1.9931   15.7461 C   0  0  0  0  0  0  0  0  0  0  0  0
   11.0494    3.0898   15.5761 O   0  0  0  0  0  0  0  0  0  0  0  0
   11.2716    0.9020   15.4529 O   0  0  0  0  0  0  0  0  0  0  0  0
    8.8496    1.5323   17.6110 N   0  0  0  0  0  0  0  0  0  0  0  0
    8.5644    2.5006   18.5050 C   0  0  0  0  0  0  0  0  0  0  0  0
    7.7611    1.8716   19.4281 C   0  0  0  0  0  0  0  0  0  0  0  0
    7.7416    0.4971   19.2441 C   0  0  0  0  0  0  0  0  0  0  0  0
    7.4900   -0.8258   19.6692 N   0  0  0  0  0  0  0  0  0  0  0  0
    6.1947   -1.5307   20.6984 C   0  0  0  0  0  0  0  0  0  0  0  0
    5.2859   -0.9454   21.3259 O   0  0  0  0  0  0  0  0  0  0  0  0
    6.0097   -3.3754   20.9336 C   0  0  0  0  0  0  0  0  0  0  0  0
    5.1929   -4.0628   22.1824 C   0  0  0  0  0  0  0  0  0  0  0  0
    4.6831   -3.2408   23.4065 C   0  0  0  0  0  0  0  0  0  0  0  0
    4.0843   -4.3170   24.7746 S   0  0  0  0  0  0  0  0  0  0  0  0
    2.8993   -5.2613   23.7827 C   0  0  0  0  0  0  0  0  0  0  0  0
    3.6117   -5.9281   22.6166 C   0  0  0  0  0  0  0  0  0  0  0  0
    4.1616   -4.9885   21.6397 N   0  0  0  0  0  0  0  0  0  0  0  0
    8.5821    0.3240   18.1579 N   0  0  0  0  0  0  0  0  0  0  0  0
    7.2487    2.9043   15.8060 H   0  0  0  0  0  0  0  0  0  0  0  0
    8.5755    3.2440   14.6594 H   0  0  0  0  0  0  0  0  0  0  0  0
    8.6340    3.8717   16.2539 H   0  0  0  0  0  0  0  0  0  0  0  0
    7.6273    0.1414   15.6460 H   0  0  0  0  0  0  0  0  0  0  0  0
    8.7590    0.5478   14.3231 H   0  0  0  0  0  0  0  0  0  0  0  0
    9.2664   -0.4307   15.6850 H   0  0  0  0  0  0  0  0  0  0  0  0
   12.1262    1.2585   15.1322 H   0  0  0  0  0  0  0  0  0  0  0  0
    8.8206    3.5419   18.3756 H   0  0  0  0  0  0  0  0  0  0  0  0
    7.3117    2.4548   20.1775 H   0  0  0  0  0  0  0  0  0  0  0  0
    7.9865   -1.5136   19.2588 H   0  0  0  0  0  0  0  0  0  0  0  0
    5.4593   -3.7059   20.0460 H   0  0  0  0  0  0  0  0  0  0  0  0
    6.9348   -3.9277   20.9453 H   0  0  0  0  0  0  0  0  0  0  0  0
    5.9344   -4.7615   22.5967 H   0  0  0  0  0  0  0  0  0  0  0  0
    5.4691   -2.6530   23.8666 H   0  0  0  0  0  0  0  0  0  0  0  0
    3.8545   -2.5792   23.1755 H   0  0  0  0  0  0  0  0  0  0  0  0
    2.4367   -6.0192   24.4224 H   0  0  0  0  0  0  0  0  0  0  0  0
    2.1073   -4.6070   23.4091 H   0  0  0  0  0  0  0  0  0  0  0  0
    4.3967   -6.6081   22.9720 H   0  0  0  0  0  0  0  0  0  0  0  0
    2.8828   -6.5563   22.0909 H   0  0  0  0  0  0  0  0  0  0  0  0
    4.5791   -5.5252   20.8750 H   0  0  0  0  0  0  0  0  0  0  0  0
  1  2  1  0
  2  3  1  0
  2  4  1  0
  4  5  2  0
  4  6  1  0
  2  7  1  0
  7  8  1  0
  8  9  2  0
  9 10  1  0
 10 11  1  0
 11 12  1  0
 12 13  2  0
 12 14  1  0
 14 15  1  0
 15 16  1  0
 16 17  1  0
 17 18  1  0
 18 19  1  0
 19 20  1  0
 10 21  2  0
 21  7  1  0
 20 15  1  0
  1 22  1  0
  1 23  1  0
  1 24  1  0
  3 25  1  0
  3 26  1  0
  3 27  1  0
  6 28  1  0
  8 29  1  0
  9 30  1  0
 11 31  1  0
 14 32  1  0
 14 33  1  0
 15 34  1  0
 16 35  1  0
 16 36  1  0
 18 37  1  0
 18 38  1  0
 19 39  1  0
 19 40  1  0
 20 41  1  0
M  END
>  <Energy>  (592) 
158.01019118983106

>  <compound_id>  (592) 
49528

>  <target_id>  (592) 
1

>  <reference_id>  (592) 
44

>  <inspiration_ids>  (592) 
[122, 44]

>  <energy_score>  (592) 
83.85619230572519

>  <distance_score>  (592) 
8.845343178351854

>  <path>  (592) 
/opt/xchem-fragalysis-2/maxwin/BulkDock/SCRATCH/511025/C49528-P44/C49528-P44.minimised.mol

>  <scratch_subdir>  (592) 
/opt/xchem-fragalysis-2/maxwin/BulkDock/SCRATCH/511025/C49528-P44

>  <fragmenstein_runtime>  (592) 
7.461271047592163

>  <fragmenstein_outcome>  (592) 
too moved

>  <fragmenstein_mode>  (592) 
expansion

>  <fragmenstein_error>  (592) 


$$$$
C9389-P122
     RDKit          3D

 40 41  0  0  0  0  0  0  0  0999 V2000
    8.8250   -1.3062   14.9736 C   0  0  0  0  0  0  0  0  0  0  0  0
    9.9889   -0.3365   15.2692 C   0  0  0  0  0  0  0  0  0  0  0  0
   10.5407    0.3642   14.0074 C   0  0  0  0  0  0  0  0  0  0  0  0
   11.2302   -1.0085   15.8511 C   0  0  0  0  0  0  0  0  0  0  0  0
   12.2182   -0.4326   16.2899 O   0  0  0  0  0  0  0  0  0  0  0  0
   11.2460   -2.3549   15.8053 O   0  0  0  0  0  0  0  0  0  0  0  0
    9.4461    0.6321   16.2348 N   0  0  0  0  0  0  0  0  0  0  0  0
    9.3581    1.9844   16.1183 C   0  0  0  0  0  0  0  0  0  0  0  0
    8.5041    2.3874   17.1103 C   0  0  0  0  0  0  0  0  0  0  0  0
    8.2100    1.2215   17.8924 C   0  0  0  0  0  0  0  0  0  0  0  0
    7.2255    1.2849   19.0719 N   0  0  0  0  0  0  0  0  0  0  0  0
    6.7584    0.1142   20.2183 C   0  0  0  0  0  0  0  0  0  0  0  0
    7.2460   -0.9875   20.3242 O   0  0  0  0  0  0  0  0  0  0  0  0
    5.0555    0.4638   21.5112 C   0  0  0  0  0  0  0  0  0  0  0  0
    3.2402    1.5011   21.9870 C   0  0  0  0  0  0  0  0  0  0  0  0
    2.8978    3.2092   22.7773 C   0  0  0  0  0  0  0  0  0  0  0  0
    1.4612    3.5979   22.6722 C   0  0  0  0  0  0  0  0  0  0  0  0
    1.1712    3.0627   21.3380 C   0  0  0  0  0  0  0  0  0  0  0  0
    2.2164    2.0689   20.9584 N   0  0  0  0  0  0  0  0  0  0  0  0
    8.7866    0.1516   17.3205 N   0  0  0  0  0  0  0  0  0  0  0  0
    9.1558   -2.3137   14.7155 H   0  0  0  0  0  0  0  0  0  0  0  0
    8.1440   -1.4664   15.8065 H   0  0  0  0  0  0  0  0  0  0  0  0
    8.1729   -0.9088   14.1916 H   0  0  0  0  0  0  0  0  0  0  0  0
   11.1282   -0.3185   13.3859 H   0  0  0  0  0  0  0  0  0  0  0  0
    9.7460    0.7981   13.3988 H   0  0  0  0  0  0  0  0  0  0  0  0
   11.2372    1.1728   14.2633 H   0  0  0  0  0  0  0  0  0  0  0  0
   12.1084   -2.6079   16.1965 H   0  0  0  0  0  0  0  0  0  0  0  0
    9.8309    2.5458   15.3268 H   0  0  0  0  0  0  0  0  0  0  0  0
    8.1425    3.3902   17.2769 H   0  0  0  0  0  0  0  0  0  0  0  0
    6.7539    2.0947   19.2421 H   0  0  0  0  0  0  0  0  0  0  0  0
    5.6772    0.9992   22.0868 H   0  0  0  0  0  0  0  0  0  0  0  0
    4.9409   -0.5264   21.9565 H   0  0  0  0  0  0  0  0  0  0  0  0
    2.8851    1.4127   23.0230 H   0  0  0  0  0  0  0  0  0  0  0  0
    3.4814    4.0399   22.3436 H   0  0  0  0  0  0  0  0  0  0  0  0
    3.0131    3.2076   23.8729 H   0  0  0  0  0  0  0  0  0  0  0  0
    0.8570    3.1365   23.4594 H   0  0  0  0  0  0  0  0  0  0  0  0
    1.3197    4.6812   22.7402 H   0  0  0  0  0  0  0  0  0  0  0  0
    1.1902    3.8657   20.5889 H   0  0  0  0  0  0  0  0  0  0  0  0
    0.1398    2.7115   21.3387 H   0  0  0  0  0  0  0  0  0  0  0  0
    2.8521    2.6886   20.4600 H   0  0  0  0  0  0  0  0  0  0  0  0
  1  2  1  0
  2  3  1  0
  2  4  1  0
  4  5  2  0
  4  6  1  0
  2  7  1  0
  7  8  1  0
  8  9  2  0
  9 10  1  0
 10 11  1  0
 11 12  1  0
 12 13  2  0
 12 14  1  0
 14 15  1  0
 15 16  1  0
 16 17  1  0
 17 18  1  0
 18 19  1  0
 10 20  2  0
 20  7  1  0
 19 15  1  0
  1 21  1  0
  1 22  1  0
  1 23  1  0
  3 24  1  0
  3 25  1  0
  3 26  1  0
  6 27  1  0
  8 28  1  0
  9 29  1  0
 11 30  1  0
 14 31  1  0
 14 32  1  0
 15 33  1  0
 16 34  1  0
 16 35  1  0
 17 36  1  0
 17 37  1  0
 18 38  1  0
 18 39  1  0
 19 40  1  0
M  END
>  <Energy>  (593) 
378.05003639079121

>  <compound_id>  (593) 
9389

>  <target_id>  (593) 
1

>  <reference_id>  (593) 
122

>  <inspiration_ids>  (593) 
[122, 44]

>  <energy_score>  (593) 
341.72949038073085

>  <distance_score>  (593) 
6.694345503006037

>  <path>  (593) 
/opt/xchem-fragalysis-2/maxwin/BulkDock/SCRATCH/511025/C9389-P122/C9389-P122.minimised.mol

>  <scratch_subdir>  (593) 
/opt/xchem-fragalysis-2/maxwin/BulkDock/SCRATCH/511025/C9389-P122

>  <fragmenstein_runtime>  (593) 
9.147009372711182

>  <fragmenstein_outcome>  (593) 
too moved

>  <fragmenstein_mode>  (593) 
expansion

>  <fragmenstein_error>  (593) 


$$$$
C9389-P44
     RDKit          3D

 40 41  0  0  0  0  0  0  0  0999 V2000
   10.7038    0.6182   14.8731 C   0  0  0  0  0  0  0  0  0  0  0  0
   10.2493    2.0885   14.8398 C   0  0  0  0  0  0  0  0  0  0  0  0
    9.0285    2.2044   13.9056 C   0  0  0  0  0  0  0  0  0  0  0  0
   11.4456    2.8798   14.3033 C   0  0  0  0  0  0  0  0  0  0  0  0
   12.3809    3.3478   14.9386 O   0  0  0  0  0  0  0  0  0  0  0  0
   11.4724    2.9926   12.9546 O   0  0  0  0  0  0  0  0  0  0  0  0
    9.8535    2.6070   16.1620 N   0  0  0  0  0  0  0  0  0  0  0  0
    9.6505    3.9271   16.4830 C   0  0  0  0  0  0  0  0  0  0  0  0
    8.9443    3.9386   17.6639 C   0  0  0  0  0  0  0  0  0  0  0  0
    8.7660    2.5866   17.9981 C   0  0  0  0  0  0  0  0  0  0  0  0
    7.8339    2.0812   18.8543 N   0  0  0  0  0  0  0  0  0  0  0  0
    7.6560    0.7705   19.3701 C   0  0  0  0  0  0  0  0  0  0  0  0
    8.3306   -0.2141   19.2523 O   0  0  0  0  0  0  0  0  0  0  0  0
    6.1500    0.3762   20.2402 C   0  0  0  0  0  0  0  0  0  0  0  0
    4.6292    0.7787   21.7685 C   0  0  0  0  0  0  0  0  0  0  0  0
    3.7530    2.1065   22.9031 C   0  0  0  0  0  0  0  0  0  0  0  0
    3.8264    1.8442   24.4105 C   0  0  0  0  0  0  0  0  0  0  0  0
    4.1875    0.4147   24.6385 C   0  0  0  0  0  0  0  0  0  0  0  0
    4.9513   -0.0840   23.4410 N   0  0  0  0  0  0  0  0  0  0  0  0
    9.3834    1.7774   17.1202 N   0  0  0  0  0  0  0  0  0  0  0  0
   10.9395    0.2593   13.8640 H   0  0  0  0  0  0  0  0  0  0  0  0
   11.6178    0.4971   15.4609 H   0  0  0  0  0  0  0  0  0  0  0  0
    9.9363   -0.0442   15.2881 H   0  0  0  0  0  0  0  0  0  0  0  0
    9.2290    1.7704   12.9196 H   0  0  0  0  0  0  0  0  0  0  0  0
    8.1580    1.6838   14.3226 H   0  0  0  0  0  0  0  0  0  0  0  0
    8.7438    3.2513   13.7465 H   0  0  0  0  0  0  0  0  0  0  0  0
   12.3076    3.4730   12.7720 H   0  0  0  0  0  0  0  0  0  0  0  0
    9.9688    4.7310   15.8356 H   0  0  0  0  0  0  0  0  0  0  0  0
    8.5395    4.8077   18.1585 H   0  0  0  0  0  0  0  0  0  0  0  0
    7.1209    2.6730   19.2207 H   0  0  0  0  0  0  0  0  0  0  0  0
    5.8778    0.5055   19.1402 H   0  0  0  0  0  0  0  0  0  0  0  0
    6.5345   -0.6926   20.4551 H   0  0  0  0  0  0  0  0  0  0  0  0
    5.3281    1.4530   22.1285 H   0  0  0  0  0  0  0  0  0  0  0  0
    2.7364    2.2505   22.5358 H   0  0  0  0  0  0  0  0  0  0  0  0
    4.1894    3.1289   22.8847 H   0  0  0  0  0  0  0  0  0  0  0  0
    4.6025    2.4843   24.8509 H   0  0  0  0  0  0  0  0  0  0  0  0
    2.8915    2.1237   24.9049 H   0  0  0  0  0  0  0  0  0  0  0  0
    4.8249    0.3222   25.5282 H   0  0  0  0  0  0  0  0  0  0  0  0
    3.3292   -0.2112   24.8725 H   0  0  0  0  0  0  0  0  0  0  0  0
    5.7976    0.2967   23.7841 H   0  0  0  0  0  0  0  0  0  0  0  0
  1  2  1  0
  2  3  1  0
  2  4  1  0
  4  5  2  0
  4  6  1  0
  2  7  1  0
  7  8  1  0
  8  9  2  0
  9 10  1  0
 10 11  1  0
 11 12  1  0
 12 13  2  0
 12 14  1  0
 14 15  1  0
 15 16  1  0
 16 17  1  0
 17 18  1  0
 18 19  1  0
 10 20  2  0
 20  7  1  0
 19 15  1  0
  1 21  1  0
  1 22  1  0
  1 23  1  0
  3 24  1  0
  3 25  1  0
  3 26  1  0
  6 27  1  0
  8 28  1  0
  9 29  1  0
 11 30  1  0
 14 31  1  0
 14 32  1  0
 15 33  1  0
 16 34  1  0
 16 35  1  0
 17 36  1  0
 17 37  1  0
 18 38  1  0
 18 39  1  0
 19 40  1  0
M  END
>  <Energy>  (594) 
343.41768207427344

>  <compound_id>  (594) 
9389

>  <target_id>  (594) 
1

>  <reference_id>  (594) 
44

>  <inspiration_ids>  (594) 
[122, 44]

>  <energy_score>  (594) 
307.0971360642236

>  <distance_score>  (594) 
7.2957817932854025

>  <path>  (594) 
/opt/xchem-fragalysis-2/maxwin/BulkDock/SCRATCH/511025/C9389-P44/C9389-P44.minimised.mol

>  <scratch_subdir>  (594) 
/opt/xchem-fragalysis-2/maxwin/BulkDock/SCRATCH/511025/C9389-P44

>  <fragmenstein_runtime>  (594) 
8.750648498535156

>  <fragmenstein_outcome>  (594) 
too moved

>  <fragmenstein_mode>  (594) 
expansion

>  <fragmenstein_error>  (594) 


$$$$
C13792-P122
     RDKit          3D

 46 47  0  0  0  0  0  0  0  0999 V2000
    2.1900    2.1928   20.8900 C   0  0  0  0  0  0  0  0  0  0  0  0
    3.3701    1.5086   22.0269 C   0  0  0  0  0  0  0  0  0  0  0  0
    3.1696    3.4996   22.4003 C   0  0  0  0  0  0  0  0  0  0  0  0
    5.0920    0.3011   21.2610 C   0  0  0  0  0  0  0  0  0  0  0  0
    5.3504   -0.6069   22.0016 O   0  0  0  0  0  0  0  0  0  0  0  0
    6.3015    0.4298   19.5967 N   0  0  0  0  0  0  0  0  0  0  0  0
    7.4303   -0.2575   19.1902 C   0  0  0  0  0  0  0  0  0  0  0  0
    7.7702    1.4474   18.4907 C   0  0  0  0  0  0  0  0  0  0  0  0
    8.4553    1.6832   17.3315 C   0  0  0  0  0  0  0  0  0  0  0  0
    8.8586    0.4579   17.0620 N   0  0  0  0  0  0  0  0  0  0  0  0
    9.9244    0.2117   16.0058 C   0  0  0  0  0  0  0  0  0  0  0  0
   10.9857   -0.9179   16.0793 C   0  0  0  0  0  0  0  0  0  0  0  0
    9.1581   -0.1928   14.7817 C   0  0  0  0  0  0  0  0  0  0  0  0
   10.6621    1.5359   15.6111 C   0  0  0  0  0  0  0  0  0  0  0  0
   10.1774    2.4037   14.8913 O   0  0  0  0  0  0  0  0  0  0  0  0
   11.9114    1.7234   16.0940 O   0  0  0  0  0  0  0  0  0  0  0  0
    8.4034   -0.4682   18.0127 N   0  0  0  0  0  0  0  0  0  0  0  0
    2.4777    1.9355   23.7923 C   0  0  0  0  0  0  0  0  0  0  0  0
    1.0925    2.9372   23.9071 C   0  0  0  0  0  0  0  0  0  0  0  0
    0.5268    2.8807   25.3203 C   0  0  0  0  0  0  0  0  0  0  0  0
    1.6002    2.4341   26.1731 N   0  0  0  0  0  0  0  0  0  0  0  0
    2.8255    2.3628   25.3521 C   0  0  0  0  0  0  0  0  0  0  0  0
    1.2433    2.3898   21.3890 H   0  0  0  0  0  0  0  0  0  0  0  0
    2.0457    1.8043   19.9109 H   0  0  0  0  0  0  0  0  0  0  0  0
    2.4524    3.1824   20.4601 H   0  0  0  0  0  0  0  0  0  0  0  0
    3.8277    4.2247   21.8603 H   0  0  0  0  0  0  0  0  0  0  0  0
    3.3330    3.8666   23.4245 H   0  0  0  0  0  0  0  0  0  0  0  0
    2.1849    3.9135   22.1356 H   0  0  0  0  0  0  0  0  0  0  0  0
    5.9755    1.1262   19.0267 H   0  0  0  0  0  0  0  0  0  0  0  0
    7.2736    2.3073   18.9131 H   0  0  0  0  0  0  0  0  0  0  0  0
    8.6298    2.5927   16.7729 H   0  0  0  0  0  0  0  0  0  0  0  0
   11.6167   -0.9002   15.1785 H   0  0  0  0  0  0  0  0  0  0  0  0
   11.6906   -0.8363   16.9036 H   0  0  0  0  0  0  0  0  0  0  0  0
   10.5365   -1.9129   16.0987 H   0  0  0  0  0  0  0  0  0  0  0  0
    8.3585    0.4973   14.7228 H   0  0  0  0  0  0  0  0  0  0  0  0
    9.7539   -0.0495   13.8788 H   0  0  0  0  0  0  0  0  0  0  0  0
    8.7282   -1.1970   14.8488 H   0  0  0  0  0  0  0  0  0  0  0  0
   12.2998    1.0655   16.6936 H   0  0  0  0  0  0  0  0  0  0  0  0
    2.3484    0.9705   24.1704 H   0  0  0  0  0  0  0  0  0  0  0  0
    0.2883    2.7941   23.1800 H   0  0  0  0  0  0  0  0  0  0  0  0
    1.3679    3.9956   23.8241 H   0  0  0  0  0  0  0  0  0  0  0  0
   -0.3372    2.2179   25.3919 H   0  0  0  0  0  0  0  0  0  0  0  0
    0.1786    3.8709   25.6354 H   0  0  0  0  0  0  0  0  0  0  0  0
    1.3956    1.5122   26.5568 H   0  0  0  0  0  0  0  0  0  0  0  0
    3.3047    3.3474   25.4264 H   0  0  0  0  0  0  0  0  0  0  0  0
    3.4246    1.6005   25.8733 H   0  0  0  0  0  0  0  0  0  0  0  0
  1  2  1  0
  2  3  1  0
  2  4  1  0
  4  5  2  0
  4  6  1  0
  6  7  1  0
  7  8  1  0
  8  9  2  0
  9 10  1  0
 10 11  1  0
 11 12  1  0
 11 13  1  0
 11 14  1  0
 14 15  2  0
 14 16  1  0
 10 17  1  0
  2 18  1  0
 18 19  1  0
 19 20  1  0
 20 21  1  0
 21 22  1  0
 17  7  2  0
 22 18  1  0
  1 23  1  0
  1 24  1  0
  1 25  1  0
  3 26  1  0
  3 27  1  0
  3 28  1  0
  6 29  1  0
  8 30  1  0
  9 31  1  0
 12 32  1  0
 12 33  1  0
 12 34  1  0
 13 35  1  0
 13 36  1  0
 13 37  1  0
 16 38  1  0
 18 39  1  0
 19 40  1  0
 19 41  1  0
 20 42  1  0
 20 43  1  0
 21 44  1  0
 22 45  1  0
 22 46  1  0
M  END
>  <Energy>  (595) 
857.32902990597108

>  <compound_id>  (595) 
13792

>  <target_id>  (595) 
1

>  <reference_id>  (595) 
122

>  <inspiration_ids>  (595) 
[122, 44]

>  <energy_score>  (595) 
797.5007035419078

>  <distance_score>  (595) 
5.580310523283525

>  <path>  (595) 
/opt/xchem-fragalysis-2/maxwin/BulkDock/SCRATCH/511025/C13792-P122/C13792-P122.minimised.mol

>  <scratch_subdir>  (595) 
/opt/xchem-fragalysis-2/maxwin/BulkDock/SCRATCH/511025/C13792-P122

>  <fragmenstein_runtime>  (595) 
8.997776746749878

>  <fragmenstein_outcome>  (595) 
too moved

>  <fragmenstein_mode>  (595) 
expansion

>  <fragmenstein_error>  (595) 


$$$$
C13792-P44
     RDKit          3D

 46 47  0  0  0  0  0  0  0  0999 V2000
    3.2046    2.0722   22.3853 C   0  0  0  0  0  0  0  0  0  0  0  0
    5.0207    1.3681   22.3570 C   0  0  0  0  0  0  0  0  0  0  0  0
    4.9654    3.1242   23.3001 C   0  0  0  0  0  0  0  0  0  0  0  0
    6.5651    1.3349   20.7280 C   0  0  0  0  0  0  0  0  0  0  0  0
    6.7118    0.2058   20.2335 O   0  0  0  0  0  0  0  0  0  0  0  0
    7.3135    2.6257   20.1230 N   0  0  0  0  0  0  0  0  0  0  0  0
    8.1147    2.8043   19.0004 C   0  0  0  0  0  0  0  0  0  0  0  0
    8.5945    4.0820   18.6317 C   0  0  0  0  0  0  0  0  0  0  0  0
    9.2744    3.9059   17.4587 C   0  0  0  0  0  0  0  0  0  0  0  0
    9.1560    2.5779   17.1429 N   0  0  0  0  0  0  0  0  0  0  0  0
    9.3783    2.0078   15.7941 C   0  0  0  0  0  0  0  0  0  0  0  0
    8.8729    0.5554   15.7097 C   0  0  0  0  0  0  0  0  0  0  0  0
    8.5990    2.8649   14.7757 C   0  0  0  0  0  0  0  0  0  0  0  0
   10.8462    2.1490   15.3496 C   0  0  0  0  0  0  0  0  0  0  0  0
   11.4713    3.2062   15.3549 O   0  0  0  0  0  0  0  0  0  0  0  0
   11.4490    1.0505   14.8300 O   0  0  0  0  0  0  0  0  0  0  0  0
    8.5664    1.8674   18.1493 N   0  0  0  0  0  0  0  0  0  0  0  0
    4.9168    0.5971   24.1203 C   0  0  0  0  0  0  0  0  0  0  0  0
    5.6077    1.0847   25.4467 C   0  0  0  0  0  0  0  0  0  0  0  0
    5.0313    0.1491   26.5057 C   0  0  0  0  0  0  0  0  0  0  0  0
    5.0582   -1.1506   25.8326 N   0  0  0  0  0  0  0  0  0  0  0  0
    4.5848   -0.8580   24.4635 C   0  0  0  0  0  0  0  0  0  0  0  0
    2.6534    1.7261   21.5037 H   0  0  0  0  0  0  0  0  0  0  0  0
    2.7178    1.9169   23.3560 H   0  0  0  0  0  0  0  0  0  0  0  0
    3.0409    3.1704   22.3173 H   0  0  0  0  0  0  0  0  0  0  0  0
    5.8295    3.3665   23.9437 H   0  0  0  0  0  0  0  0  0  0  0  0
    4.8012    3.9784   22.6281 H   0  0  0  0  0  0  0  0  0  0  0  0
    4.1680    3.1313   24.0589 H   0  0  0  0  0  0  0  0  0  0  0  0
    6.9891    3.3995   20.5995 H   0  0  0  0  0  0  0  0  0  0  0  0
    8.4423    5.0241   19.1348 H   0  0  0  0  0  0  0  0  0  0  0  0
    9.7873    4.6075   16.8159 H   0  0  0  0  0  0  0  0  0  0  0  0
    8.9049    0.1756   14.6823 H   0  0  0  0  0  0  0  0  0  0  0  0
    9.4801   -0.1135   16.3270 H   0  0  0  0  0  0  0  0  0  0  0  0
    7.8386    0.4554   16.0441 H   0  0  0  0  0  0  0  0  0  0  0  0
    7.5434    2.9474   15.0495 H   0  0  0  0  0  0  0  0  0  0  0  0
    8.9839    3.8898   14.7070 H   0  0  0  0  0  0  0  0  0  0  0  0
    8.6961    2.4448   13.7711 H   0  0  0  0  0  0  0  0  0  0  0  0
   10.9311    0.2322   14.7130 H   0  0  0  0  0  0  0  0  0  0  0  0
    3.9644    1.0643   24.3989 H   0  0  0  0  0  0  0  0  0  0  0  0
    5.3832    2.1209   25.7114 H   0  0  0  0  0  0  0  0  0  0  0  0
    6.6867    0.9464   25.4772 H   0  0  0  0  0  0  0  0  0  0  0  0
    4.0041    0.4242   26.7717 H   0  0  0  0  0  0  0  0  0  0  0  0
    5.6331    0.1409   27.4194 H   0  0  0  0  0  0  0  0  0  0  0  0
    6.0280   -1.4611   25.7739 H   0  0  0  0  0  0  0  0  0  0  0  0
    4.8376   -1.6344   23.7428 H   0  0  0  0  0  0  0  0  0  0  0  0
    3.5206   -0.8624   24.5795 H   0  0  0  0  0  0  0  0  0  0  0  0
  1  2  1  0
  2  3  1  0
  2  4  1  0
  4  5  2  0
  4  6  1  0
  6  7  1  0
  7  8  1  0
  8  9  2  0
  9 10  1  0
 10 11  1  0
 11 12  1  0
 11 13  1  0
 11 14  1  0
 14 15  2  0
 14 16  1  0
 10 17  1  0
  2 18  1  0
 18 19  1  0
 19 20  1  0
 20 21  1  0
 21 22  1  0
 17  7  2  0
 22 18  1  0
  1 23  1  0
  1 24  1  0
  1 25  1  0
  3 26  1  0
  3 27  1  0
  3 28  1  0
  6 29  1  0
  8 30  1  0
  9 31  1  0
 12 32  1  0
 12 33  1  0
 12 34  1  0
 13 35  1  0
 13 36  1  0
 13 37  1  0
 16 38  1  0
 18 39  1  0
 19 40  1  0
 19 41  1  0
 20 42  1  0
 20 43  1  0
 21 44  1  0
 22 45  1  0
 22 46  1  0
M  END
>  <Energy>  (596) 
387.31394765481201

>  <compound_id>  (596) 
13792

>  <target_id>  (596) 
1

>  <reference_id>  (596) 
44

>  <inspiration_ids>  (596) 
[122, 44]

>  <energy_score>  (596) 
327.4856212907628

>  <distance_score>  (596) 
7.709217170896512

>  <path>  (596) 
/opt/xchem-fragalysis-2/maxwin/BulkDock/SCRATCH/511025/C13792-P44/C13792-P44.minimised.mol

>  <scratch_subdir>  (596) 
/opt/xchem-fragalysis-2/maxwin/BulkDock/SCRATCH/511025/C13792-P44

>  <fragmenstein_runtime>  (596) 
9.585523128509521

>  <fragmenstein_outcome>  (596) 
too moved

>  <fragmenstein_mode>  (596) 
expansion

>  <fragmenstein_error>  (596) 


$$$$
C49529-P122
     RDKit          3D

 49 50  0  0  0  0  0  0  0  0999 V2000
    5.5488   -2.0238   21.5075 C   0  0  0  0  0  0  0  0  0  0  0  0
    5.2189   -0.1272   21.6987 C   0  0  0  0  0  0  0  0  0  0  0  0
    4.6281   -1.4559   23.1790 C   0  0  0  0  0  0  0  0  0  0  0  0
    6.8735   -0.0768   20.2944 C   0  0  0  0  0  0  0  0  0  0  0  0
    7.5153   -1.0696   20.3902 O   0  0  0  0  0  0  0  0  0  0  0  0
    7.2194    1.0692   19.0941 N   0  0  0  0  0  0  0  0  0  0  0  0
    8.2304    1.0689   17.9022 C   0  0  0  0  0  0  0  0  0  0  0  0
    8.4158    2.3166   17.2072 C   0  0  0  0  0  0  0  0  0  0  0  0
    9.3624    2.1196   16.2473 C   0  0  0  0  0  0  0  0  0  0  0  0
    9.6768    0.7921   16.2837 N   0  0  0  0  0  0  0  0  0  0  0  0
   10.7330    0.1704   15.4477 C   0  0  0  0  0  0  0  0  0  0  0  0
   10.5314   -1.3382   15.2653 C   0  0  0  0  0  0  0  0  0  0  0  0
   12.1497    0.3452   16.0557 C   0  0  0  0  0  0  0  0  0  0  0  0
   10.8141    0.9184   14.0996 C   0  0  0  0  0  0  0  0  0  0  0  0
   11.5146    1.9105   13.9124 O   0  0  0  0  0  0  0  0  0  0  0  0
   10.0240    0.4836   13.1056 O   0  0  0  0  0  0  0  0  0  0  0  0
    8.9199    0.1006   17.2234 N   0  0  0  0  0  0  0  0  0  0  0  0
    3.5717    1.1999   22.0265 C   0  0  0  0  0  0  0  0  0  0  0  0
    2.3645    2.5275   21.3631 C   0  0  0  0  0  0  0  0  0  0  0  0
    2.3816    3.9879   21.9075 C   0  0  0  0  0  0  0  0  0  0  0  0
    1.9637    4.0859   23.3556 C   0  0  0  0  0  0  0  0  0  0  0  0
    2.8444    3.2723   24.1670 N   0  0  0  0  0  0  0  0  0  0  0  0
    2.7866    1.8045   23.7284 C   0  0  0  0  0  0  0  0  0  0  0  0
    5.1355   -2.7683   20.7807 H   0  0  0  0  0  0  0  0  0  0  0  0
    6.3530   -2.2493   20.9025 H   0  0  0  0  0  0  0  0  0  0  0  0
    5.7407   -2.6622   22.3060 H   0  0  0  0  0  0  0  0  0  0  0  0
    5.4500   -1.9405   23.7591 H   0  0  0  0  0  0  0  0  0  0  0  0
    4.2765   -0.9758   24.1616 H   0  0  0  0  0  0  0  0  0  0  0  0
    3.7784   -2.1611   23.1630 H   0  0  0  0  0  0  0  0  0  0  0  0
    6.6594    1.8231   19.2272 H   0  0  0  0  0  0  0  0  0  0  0  0
    7.9411    3.2524   17.4537 H   0  0  0  0  0  0  0  0  0  0  0  0
    9.8311    2.8229   15.5733 H   0  0  0  0  0  0  0  0  0  0  0  0
   10.8286   -1.8992   16.1532 H   0  0  0  0  0  0  0  0  0  0  0  0
   11.1556   -1.7236   14.4518 H   0  0  0  0  0  0  0  0  0  0  0  0
    9.4842   -1.5878   15.0682 H   0  0  0  0  0  0  0  0  0  0  0  0
   12.3153    1.3668   16.4176 H   0  0  0  0  0  0  0  0  0  0  0  0
   12.3359   -0.3453   16.8830 H   0  0  0  0  0  0  0  0  0  0  0  0
   12.9275    0.1340   15.3102 H   0  0  0  0  0  0  0  0  0  0  0  0
    9.5713   -0.3852   13.2571 H   0  0  0  0  0  0  0  0  0  0  0  0
    2.8796    0.7388   21.3884 H   0  0  0  0  0  0  0  0  0  0  0  0
    1.3570    2.2318   21.5962 H   0  0  0  0  0  0  0  0  0  0  0  0
    2.3473    2.5714   20.2775 H   0  0  0  0  0  0  0  0  0  0  0  0
    3.3450    4.4885   21.7605 H   0  0  0  0  0  0  0  0  0  0  0  0
    1.6643    4.5685   21.3120 H   0  0  0  0  0  0  0  0  0  0  0  0
    0.9168    3.7846   23.4823 H   0  0  0  0  0  0  0  0  0  0  0  0
    2.0322    5.1286   23.6843 H   0  0  0  0  0  0  0  0  0  0  0  0
    2.5420    3.3192   25.1399 H   0  0  0  0  0  0  0  0  0  0  0  0
    3.1249    1.1364   24.5528 H   0  0  0  0  0  0  0  0  0  0  0  0
    1.7606    1.7421   23.9942 H   0  0  0  0  0  0  0  0  0  0  0  0
  1  2  1  0
  2  3  1  0
  2  4  1  0
  4  5  2  0
  4  6  1  0
  6  7  1  0
  7  8  1  0
  8  9  2  0
  9 10  1  0
 10 11  1  0
 11 12  1  0
 11 13  1  0
 11 14  1  0
 14 15  2  0
 14 16  1  0
 10 17  1  0
  2 18  1  0
 18 19  1  0
 19 20  1  0
 20 21  1  0
 21 22  1  0
 22 23  1  0
 17  7  2  0
 23 18  1  0
  1 24  1  0
  1 25  1  0
  1 26  1  0
  3 27  1  0
  3 28  1  0
  3 29  1  0
  6 30  1  0
  8 31  1  0
  9 32  1  0
 12 33  1  0
 12 34  1  0
 12 35  1  0
 13 36  1  0
 13 37  1  0
 13 38  1  0
 16 39  1  0
 18 40  1  0
 19 41  1  0
 19 42  1  0
 20 43  1  0
 20 44  1  0
 21 45  1  0
 21 46  1  0
 22 47  1  0
 23 48  1  0
 23 49  1  0
M  END
>  <Energy>  (597) 
726.54985167352822

>  <compound_id>  (597) 
49529

>  <target_id>  (597) 
1

>  <reference_id>  (597) 
122

>  <inspiration_ids>  (597) 
[122, 44]

>  <energy_score>  (597) 
671.2346932994789

>  <distance_score>  (597) 
6.183153822637915

>  <path>  (597) 
/opt/xchem-fragalysis-2/maxwin/BulkDock/SCRATCH/511025/C49529-P122/C49529-P122.minimised.mol

>  <scratch_subdir>  (597) 
/opt/xchem-fragalysis-2/maxwin/BulkDock/SCRATCH/511025/C49529-P122

>  <fragmenstein_runtime>  (597) 
12.747215509414673

>  <fragmenstein_outcome>  (597) 
too moved

>  <fragmenstein_mode>  (597) 
expansion

>  <fragmenstein_error>  (597) 


$$$$
C49529-P44
     RDKit          3D

 49 50  0  0  0  0  0  0  0  0999 V2000
    5.6154   -0.6378   24.8964 C   0  0  0  0  0  0  0  0  0  0  0  0
    5.0132   -0.4472   23.0302 C   0  0  0  0  0  0  0  0  0  0  0  0
    4.3404   -1.7516   23.5282 C   0  0  0  0  0  0  0  0  0  0  0  0
    5.7655   -1.0330   21.0866 C   0  0  0  0  0  0  0  0  0  0  0  0
    5.6349   -2.2601   20.7909 O   0  0  0  0  0  0  0  0  0  0  0  0
    6.6593    0.3276   20.1094 N   0  0  0  0  0  0  0  0  0  0  0  0
    7.4661    0.2927   18.8951 C   0  0  0  0  0  0  0  0  0  0  0  0
    7.9592    1.7346   18.7222 C   0  0  0  0  0  0  0  0  0  0  0  0
    8.7663    1.8819   17.6198 C   0  0  0  0  0  0  0  0  0  0  0  0
    8.6774    0.6497   17.0798 N   0  0  0  0  0  0  0  0  0  0  0  0
    8.9684    0.2082   15.6760 C   0  0  0  0  0  0  0  0  0  0  0  0
   10.3262   -0.5082   15.5633 C   0  0  0  0  0  0  0  0  0  0  0  0
    7.8586   -0.7398   15.2065 C   0  0  0  0  0  0  0  0  0  0  0  0
    9.0335    1.3655   14.6481 C   0  0  0  0  0  0  0  0  0  0  0  0
    8.8804    2.5577   14.8708 O   0  0  0  0  0  0  0  0  0  0  0  0
    9.3327    0.9855   13.3716 O   0  0  0  0  0  0  0  0  0  0  0  0
    8.4768   -0.2174   18.1590 N   0  0  0  0  0  0  0  0  0  0  0  0
    4.3849    1.1443   24.0061 C   0  0  0  0  0  0  0  0  0  0  0  0
    3.9237    2.5921   23.5271 C   0  0  0  0  0  0  0  0  0  0  0  0
    3.4757    3.5633   24.6743 C   0  0  0  0  0  0  0  0  0  0  0  0
    4.0851    3.1971   26.0342 C   0  0  0  0  0  0  0  0  0  0  0  0
    3.8421    1.8027   26.4344 N   0  0  0  0  0  0  0  0  0  0  0  0
    3.4223    1.0003   25.2631 C   0  0  0  0  0  0  0  0  0  0  0  0
    6.3916    0.0912   25.1832 H   0  0  0  0  0  0  0  0  0  0  0  0
    6.0409   -1.6401   25.1401 H   0  0  0  0  0  0  0  0  0  0  0  0
    4.8637   -0.5843   25.6782 H   0  0  0  0  0  0  0  0  0  0  0  0
    5.1969   -2.4186   23.5591 H   0  0  0  0  0  0  0  0  0  0  0  0
    3.9975   -1.7837   24.5493 H   0  0  0  0  0  0  0  0  0  0  0  0
    3.4695   -2.1324   23.0183 H   0  0  0  0  0  0  0  0  0  0  0  0
    6.6682    1.1929   20.6388 H   0  0  0  0  0  0  0  0  0  0  0  0
    7.6710    2.5787   19.3303 H   0  0  0  0  0  0  0  0  0  0  0  0
    9.2200    2.7505   17.1652 H   0  0  0  0  0  0  0  0  0  0  0  0
   10.4427   -1.0244   14.6052 H   0  0  0  0  0  0  0  0  0  0  0  0
   10.4627   -1.2761   16.3238 H   0  0  0  0  0  0  0  0  0  0  0  0
   11.1520    0.2086   15.6144 H   0  0  0  0  0  0  0  0  0  0  0  0
    8.1651   -1.7891   15.2578 H   0  0  0  0  0  0  0  0  0  0  0  0
    6.9905   -0.6229   15.8452 H   0  0  0  0  0  0  0  0  0  0  0  0
    7.5168   -0.5575   14.1829 H   0  0  0  0  0  0  0  0  0  0  0  0
    9.3347    0.0205   13.1406 H   0  0  0  0  0  0  0  0  0  0  0  0
    5.2651    1.4245   24.5870 H   0  0  0  0  0  0  0  0  0  0  0  0
    4.7543    3.1574   23.1130 H   0  0  0  0  0  0  0  0  0  0  0  0
    3.0962    2.5293   22.8175 H   0  0  0  0  0  0  0  0  0  0  0  0
    3.7618    4.5888   24.4086 H   0  0  0  0  0  0  0  0  0  0  0  0
    2.3797    3.5777   24.7421 H   0  0  0  0  0  0  0  0  0  0  0  0
    3.6972    3.8695   26.8075 H   0  0  0  0  0  0  0  0  0  0  0  0
    5.1688    3.3592   25.9969 H   0  0  0  0  0  0  0  0  0  0  0  0
    3.0908    1.7802   27.1242 H   0  0  0  0  0  0  0  0  0  0  0  0
    3.1326   -0.0064   25.5557 H   0  0  0  0  0  0  0  0  0  0  0  0
    2.5211    1.5259   25.0134 H   0  0  0  0  0  0  0  0  0  0  0  0
  1  2  1  0
  2  3  1  0
  2  4  1  0
  4  5  2  0
  4  6  1  0
  6  7  1  0
  7  8  1  0
  8  9  2  0
  9 10  1  0
 10 11  1  0
 11 12  1  0
 11 13  1  0
 11 14  1  0
 14 15  2  0
 14 16  1  0
 10 17  1  0
  2 18  1  0
 18 19  1  0
 19 20  1  0
 20 21  1  0
 21 22  1  0
 22 23  1  0
 17  7  2  0
 23 18  1  0
  1 24  1  0
  1 25  1  0
  1 26  1  0
  3 27  1  0
  3 28  1  0
  3 29  1  0
  6 30  1  0
  8 31  1  0
  9 32  1  0
 12 33  1  0
 12 34  1  0
 12 35  1  0
 13 36  1  0
 13 37  1  0
 13 38  1  0
 16 39  1  0
 18 40  1  0
 19 41  1  0
 19 42  1  0
 20 43  1  0
 20 44  1  0
 21 45  1  0
 21 46  1  0
 22 47  1  0
 23 48  1  0
 23 49  1  0
M  END
>  <Energy>  (598) 
481.59018538503761

>  <compound_id>  (598) 
49529

>  <target_id>  (598) 
1

>  <reference_id>  (598) 
44

>  <inspiration_ids>  (598) 
[122, 44]

>  <energy_score>  (598) 
426.27502701098933

>  <distance_score>  (598) 
6.2634856386690885

>  <path>  (598) 
/opt/xchem-fragalysis-2/maxwin/BulkDock/SCRATCH/511025/C49529-P44/C49529-P44.minimised.mol

>  <scratch_subdir>  (598) 
/opt/xchem-fragalysis-2/maxwin/BulkDock/SCRATCH/511025/C49529-P44

>  <fragmenstein_runtime>  (598) 
13.94756817817688

>  <fragmenstein_outcome>  (598) 
too moved

>  <fragmenstein_mode>  (598) 
expansion

>  <fragmenstein_error>  (598) 


$$$$
C49530-P122
     RDKit          3D

 40 41  0  0  0  0  0  0  0  0999 V2000
   11.5967   -3.0369   14.7206 C   0  0  0  0  0  0  0  0  0  0  0  0
   11.8719   -3.0980   16.2181 C   0  0  0  0  0  0  0  0  0  0  0  0
   12.8052   -4.2396   16.6120 C   0  0  0  0  0  0  0  0  0  0  0  0
   12.5096   -1.7525   16.5498 C   0  0  0  0  0  0  0  0  0  0  0  0
   11.9986   -0.6530   16.3936 O   0  0  0  0  0  0  0  0  0  0  0  0
   13.7828   -1.8048   16.9913 O   0  0  0  0  0  0  0  0  0  0  0  0
   10.5826   -3.2712   16.9122 N   0  0  0  0  0  0  0  0  0  0  0  0
    9.2254   -1.8991   16.9313 C   0  0  0  0  0  0  0  0  0  0  0  0
    8.5953   -1.8833   18.8315 C   0  0  0  0  0  0  0  0  0  0  0  0
    8.8270   -3.9711   19.4961 C   0  0  0  0  0  0  0  0  0  0  0  0
    7.9028   -3.5507   21.0480 N   0  0  0  0  0  0  0  0  0  0  0  0
    6.1335   -2.9840   21.3028 C   0  0  0  0  0  0  0  0  0  0  0  0
    5.3347   -2.9284   20.4216 O   0  0  0  0  0  0  0  0  0  0  0  0
    5.4372   -2.2196   23.0755 C   0  0  0  0  0  0  0  0  0  0  0  0
    3.8235   -2.4826   23.9312 C   0  0  0  0  0  0  0  0  0  0  0  0
    3.7009   -3.1466   25.4167 C   0  0  0  0  0  0  0  0  0  0  0  0
    4.8224   -4.0129   25.9308 C   0  0  0  0  0  0  0  0  0  0  0  0
    6.0804   -3.4721   25.5299 N   0  0  0  0  0  0  0  0  0  0  0  0
    5.9060   -2.1986   24.8466 C   0  0  0  0  0  0  0  0  0  0  0  0
   10.2094   -4.6928   18.1703 N   0  0  0  0  0  0  0  0  0  0  0  0
   12.5131   -2.9003   14.1410 H   0  0  0  0  0  0  0  0  0  0  0  0
   10.9647   -2.1759   14.4877 H   0  0  0  0  0  0  0  0  0  0  0  0
   11.0701   -3.9206   14.3643 H   0  0  0  0  0  0  0  0  0  0  0  0
   13.0161   -4.2281   17.6887 H   0  0  0  0  0  0  0  0  0  0  0  0
   12.3651   -5.2102   16.3848 H   0  0  0  0  0  0  0  0  0  0  0  0
   13.7703   -4.1755   16.1002 H   0  0  0  0  0  0  0  0  0  0  0  0
   14.0485   -0.8671   17.1078 H   0  0  0  0  0  0  0  0  0  0  0  0
    9.4676   -1.1009   16.2137 H   0  0  0  0  0  0  0  0  0  0  0  0
    7.9765   -1.0292   19.2803 H   0  0  0  0  0  0  0  0  0  0  0  0
    8.3340   -3.5991   21.8752 H   0  0  0  0  0  0  0  0  0  0  0  0
    5.1210   -1.3273   22.5476 H   0  0  0  0  0  0  0  0  0  0  0  0
    3.0587   -2.8679   23.2647 H   0  0  0  0  0  0  0  0  0  0  0  0
    3.5334   -1.4959   24.2597 H   0  0  0  0  0  0  0  0  0  0  0  0
    2.8302   -3.7673   25.5339 H   0  0  0  0  0  0  0  0  0  0  0  0
    3.5156   -2.3331   26.1376 H   0  0  0  0  0  0  0  0  0  0  0  0
    4.7747   -4.0617   27.0249 H   0  0  0  0  0  0  0  0  0  0  0  0
    4.7316   -5.0482   25.5899 H   0  0  0  0  0  0  0  0  0  0  0  0
    6.6393   -4.1331   24.9932 H   0  0  0  0  0  0  0  0  0  0  0  0
    6.7779   -1.6865   25.2720 H   0  0  0  0  0  0  0  0  0  0  0  0
    5.2218   -1.5096   25.3703 H   0  0  0  0  0  0  0  0  0  0  0  0
  1  2  1  0
  2  3  1  0
  2  4  1  0
  4  5  2  0
  4  6  1  0
  2  7  1  0
  7  8  1  0
  8  9  2  0
  9 10  1  0
 10 11  1  0
 11 12  1  0
 12 13  2  0
 12 14  1  0
 14 15  1  0
 15 16  1  0
 16 17  1  0
 17 18  1  0
 18 19  1  0
 10 20  2  0
 20  7  1  0
 19 14  1  0
  1 21  1  0
  1 22  1  0
  1 23  1  0
  3 24  1  0
  3 25  1  0
  3 26  1  0
  6 27  1  0
  8 28  1  0
  9 29  1  0
 11 30  1  0
 14 31  1  0
 15 32  1  0
 15 33  1  0
 16 34  1  0
 16 35  1  0
 17 36  1  0
 17 37  1  0
 18 38  1  0
 19 39  1  0
 19 40  1  0
M  END
>  <Energy>  (599) 
1109.5404906251788

>  <compound_id>  (599) 
49530

>  <target_id>  (599) 
1

>  <reference_id>  (599) 
122

>  <inspiration_ids>  (599) 
[122, 44]

>  <energy_score>  (599) 
1071.619158137791

>  <distance_score>  (599) 
7.713954360680983

>  <path>  (599) 
/opt/xchem-fragalysis-2/maxwin/BulkDock/SCRATCH/511025/C49530-P122/C49530-P122.minimised.mol

>  <scratch_subdir>  (599) 
/opt/xchem-fragalysis-2/maxwin/BulkDock/SCRATCH/511025/C49530-P122

>  <fragmenstein_runtime>  (599) 
7.60305380821228

>  <fragmenstein_outcome>  (599) 
too moved

>  <fragmenstein_mode>  (599) 
expansion

>  <fragmenstein_error>  (599) 


$$$$
C49530-P44
     RDKit          3D

 40 41  0  0  0  0  0  0  0  0999 V2000
    7.4011    3.5172   15.4374 C   0  0  0  0  0  0  0  0  0  0  0  0
    8.4956    3.3772   16.5168 C   0  0  0  0  0  0  0  0  0  0  0  0
    8.8116    1.8995   16.7965 C   0  0  0  0  0  0  0  0  0  0  0  0
    9.7339    4.0273   15.8890 C   0  0  0  0  0  0  0  0  0  0  0  0
   10.6927    3.4523   15.3895 O   0  0  0  0  0  0  0  0  0  0  0  0
    9.6906    5.3775   15.8233 O   0  0  0  0  0  0  0  0  0  0  0  0
    8.1314    4.0410   17.7808 N   0  0  0  0  0  0  0  0  0  0  0  0
    8.9837    4.5531   18.7106 C   0  0  0  0  0  0  0  0  0  0  0  0
    8.1961    5.3654   19.5166 C   0  0  0  0  0  0  0  0  0  0  0  0
    6.8099    5.0920   19.2263 C   0  0  0  0  0  0  0  0  0  0  0  0
    5.5765    5.1687   20.0488 N   0  0  0  0  0  0  0  0  0  0  0  0
    5.3408    5.7716   21.5230 C   0  0  0  0  0  0  0  0  0  0  0  0
    6.0834    6.3564   22.2399 O   0  0  0  0  0  0  0  0  0  0  0  0
    3.7668    5.3601   22.1263 C   0  0  0  0  0  0  0  0  0  0  0  0
    2.8553    6.4636   22.7410 C   0  0  0  0  0  0  0  0  0  0  0  0
    1.5701    5.9375   23.4617 C   0  0  0  0  0  0  0  0  0  0  0  0
    1.8315    4.8713   24.5249 C   0  0  0  0  0  0  0  0  0  0  0  0
    2.6153    3.7894   23.9399 N   0  0  0  0  0  0  0  0  0  0  0  0
    3.8762    4.3315   23.3606 C   0  0  0  0  0  0  0  0  0  0  0  0
    6.8278    4.3418   18.0787 N   0  0  0  0  0  0  0  0  0  0  0  0
    7.2061    4.5712   15.2032 H   0  0  0  0  0  0  0  0  0  0  0  0
    6.4475    3.0820   15.7381 H   0  0  0  0  0  0  0  0  0  0  0  0
    7.7056    3.0326   14.5019 H   0  0  0  0  0  0  0  0  0  0  0  0
    9.8117    1.7776   17.2156 H   0  0  0  0  0  0  0  0  0  0  0  0
    8.1346    1.4550   17.5283 H   0  0  0  0  0  0  0  0  0  0  0  0
    8.7783    1.2994   15.8803 H   0  0  0  0  0  0  0  0  0  0  0  0
   10.5317    5.6251   15.3878 H   0  0  0  0  0  0  0  0  0  0  0  0
   10.0529    4.4047   18.6802 H   0  0  0  0  0  0  0  0  0  0  0  0
    8.5621    5.9558   20.3468 H   0  0  0  0  0  0  0  0  0  0  0  0
    4.7098    4.8034   19.6902 H   0  0  0  0  0  0  0  0  0  0  0  0
    3.2220    4.8883   21.3027 H   0  0  0  0  0  0  0  0  0  0  0  0
    3.4451    7.0515   23.4561 H   0  0  0  0  0  0  0  0  0  0  0  0
    2.5619    7.1602   21.9468 H   0  0  0  0  0  0  0  0  0  0  0  0
    0.8961    5.5291   22.6974 H   0  0  0  0  0  0  0  0  0  0  0  0
    1.0505    6.7876   23.9187 H   0  0  0  0  0  0  0  0  0  0  0  0
    2.3624    5.3045   25.3804 H   0  0  0  0  0  0  0  0  0  0  0  0
    0.8821    4.4755   24.9004 H   0  0  0  0  0  0  0  0  0  0  0  0
    2.0948    3.3712   23.1687 H   0  0  0  0  0  0  0  0  0  0  0  0
    4.4423    4.8269   24.1627 H   0  0  0  0  0  0  0  0  0  0  0  0
    4.5032    3.4870   23.0955 H   0  0  0  0  0  0  0  0  0  0  0  0
  1  2  1  0
  2  3  1  0
  2  4  1  0
  4  5  2  0
  4  6  1  0
  2  7  1  0
  7  8  1  0
  8  9  2  0
  9 10  1  0
 10 11  1  0
 11 12  1  0
 12 13  2  0
 12 14  1  0
 14 15  1  0
 15 16  1  0
 16 17  1  0
 17 18  1  0
 18 19  1  0
 10 20  2  0
 20  7  1  0
 19 14  1  0
  1 21  1  0
  1 22  1  0
  1 23  1  0
  3 24  1  0
  3 25  1  0
  3 26  1  0
  6 27  1  0
  8 28  1  0
  9 29  1  0
 11 30  1  0
 14 31  1  0
 15 32  1  0
 15 33  1  0
 16 34  1  0
 16 35  1  0
 17 36  1  0
 17 37  1  0
 18 38  1  0
 19 39  1  0
 19 40  1  0
M  END
>  <Energy>  (600) 
22.704684745599323

>  <compound_id>  (600) 
49530

>  <target_id>  (600) 
1

>  <reference_id>  (600) 
44

>  <inspiration_ids>  (600) 
[122, 44]

>  <energy_score>  (600) 
-18.419105672288254

>  <distance_score>  (600) 
8.02449766807007

>  <path>  (600) 
/opt/xchem-fragalysis-2/maxwin/BulkDock/SCRATCH/511025/C49530-P44/C49530-P44.minimised.mol

>  <scratch_subdir>  (600) 
/opt/xchem-fragalysis-2/maxwin/BulkDock/SCRATCH/511025/C49530-P44

>  <fragmenstein_runtime>  (600) 
6.667186737060547

>  <fragmenstein_outcome>  (600) 
too moved

>  <fragmenstein_mode>  (600) 
expansion

>  <fragmenstein_error>  (600) 


$$$$
C49531-P122
     RDKit          3D

 41 43  0  0  0  0  0  0  0  0999 V2000
   10.3161   -0.8570   16.1207 C   0  0  0  0  0  0  0  0  0  0  0  0
    8.8646   -0.1779   16.2502 C   0  0  0  0  0  0  0  0  0  0  0  0
    7.9486   -1.1157   15.4572 C   0  0  0  0  0  0  0  0  0  0  0  0
    9.2812    1.0456   15.3665 C   0  0  0  0  0  0  0  0  0  0  0  0
    9.3867    2.2145   15.7092 O   0  0  0  0  0  0  0  0  0  0  0  0
    9.6619    0.7387   14.0761 O   0  0  0  0  0  0  0  0  0  0  0  0
    8.1775    0.2240   17.6558 N   0  0  0  0  0  0  0  0  0  0  0  0
    8.0587    1.5099   18.0823 C   0  0  0  0  0  0  0  0  0  0  0  0
    7.3243    1.3919   19.2986 C   0  0  0  0  0  0  0  0  0  0  0  0
    6.8572    0.0825   19.8453 C   0  0  0  0  0  0  0  0  0  0  0  0
    5.8077   -0.1712   21.3864 N   0  0  0  0  0  0  0  0  0  0  0  0
    5.3746   -1.5725   22.2142 C   0  0  0  0  0  0  0  0  0  0  0  0
    5.6195   -2.6752   21.8423 O   0  0  0  0  0  0  0  0  0  0  0  0
    4.5613   -1.6408   24.0339 C   0  0  0  0  0  0  0  0  0  0  0  0
    4.1012   -0.5231   25.1732 C   0  0  0  0  0  0  0  0  0  0  0  0
    3.3679   -1.2907   26.2714 C   0  0  0  0  0  0  0  0  0  0  0  0
    3.4984   -2.7151   25.7999 C   0  0  0  0  0  0  0  0  0  0  0  0
    4.8716   -3.2035   26.0949 C   0  0  0  0  0  0  0  0  0  0  0  0
    5.6543   -2.4412   25.0464 C   0  0  0  0  0  0  0  0  0  0  0  0
    3.5286   -2.6461   24.3136 N   0  0  0  0  0  0  0  0  0  0  0  0
    7.6425   -0.6495   18.9644 N   0  0  0  0  0  0  0  0  0  0  0  0
   10.3676   -1.9063   16.3900 H   0  0  0  0  0  0  0  0  0  0  0  0
   11.1063   -0.2894   16.6061 H   0  0  0  0  0  0  0  0  0  0  0  0
   10.6665   -0.9395   15.0846 H   0  0  0  0  0  0  0  0  0  0  0  0
    6.9970   -1.1941   15.9416 H   0  0  0  0  0  0  0  0  0  0  0  0
    8.3375   -2.1293   15.3688 H   0  0  0  0  0  0  0  0  0  0  0  0
    7.7824   -0.8314   14.4215 H   0  0  0  0  0  0  0  0  0  0  0  0
    9.4961   -0.1668   13.7102 H   0  0  0  0  0  0  0  0  0  0  0  0
    8.3928    2.4000   17.5783 H   0  0  0  0  0  0  0  0  0  0  0  0
    7.0922    2.2841   19.7881 H   0  0  0  0  0  0  0  0  0  0  0  0
    5.4127    0.6222   21.8627 H   0  0  0  0  0  0  0  0  0  0  0  0
    4.9508   -0.0458   25.6684 H   0  0  0  0  0  0  0  0  0  0  0  0
    3.4525    0.2959   24.8812 H   0  0  0  0  0  0  0  0  0  0  0  0
    2.3274   -0.9893   26.3710 H   0  0  0  0  0  0  0  0  0  0  0  0
    3.8309   -1.1233   27.2510 H   0  0  0  0  0  0  0  0  0  0  0  0
    2.7686   -3.3889   26.2489 H   0  0  0  0  0  0  0  0  0  0  0  0
    4.9568   -4.2850   25.9327 H   0  0  0  0  0  0  0  0  0  0  0  0
    5.2151   -2.9906   27.1124 H   0  0  0  0  0  0  0  0  0  0  0  0
    6.3089   -1.7499   25.5833 H   0  0  0  0  0  0  0  0  0  0  0  0
    6.2824   -3.2018   24.5843 H   0  0  0  0  0  0  0  0  0  0  0  0
    2.6146   -2.3395   23.9828 H   0  0  0  0  0  0  0  0  0  0  0  0
  1  2  1  0
  2  3  1  0
  2  4  1  0
  4  5  2  0
  4  6  1  0
  2  7  1  0
  7  8  1  0
  8  9  2  0
  9 10  1  0
 10 11  1  0
 11 12  1  0
 12 13  2  0
 12 14  1  0
 14 15  1  0
 15 16  1  0
 16 17  1  0
 17 18  1  0
 18 19  1  0
 17 20  1  0
 10 21  2  0
 21  7  1  0
 19 14  1  0
 20 14  1  0
  1 22  1  0
  1 23  1  0
  1 24  1  0
  3 25  1  0
  3 26  1  0
  3 27  1  0
  6 28  1  0
  8 29  1  0
  9 30  1  0
 11 31  1  0
 15 32  1  0
 15 33  1  0
 16 34  1  0
 16 35  1  0
 17 36  1  0
 18 37  1  0
 18 38  1  0
 19 39  1  0
 19 40  1  0
 20 41  1  0
M  END
>  <Energy>  (601) 
350.02764497260335

>  <compound_id>  (601) 
49531

>  <target_id>  (601) 
1

>  <reference_id>  (601) 
122

>  <inspiration_ids>  (601) 
[122, 44]

>  <energy_score>  (601) 
263.6312639249797

>  <distance_score>  (601) 
7.401984889042784

>  <path>  (601) 
/opt/xchem-fragalysis-2/maxwin/BulkDock/SCRATCH/511025/C49531-P122/C49531-P122.minimised.mol

>  <scratch_subdir>  (601) 
/opt/xchem-fragalysis-2/maxwin/BulkDock/SCRATCH/511025/C49531-P122

>  <fragmenstein_runtime>  (601) 
10.625876188278198

>  <fragmenstein_outcome>  (601) 
too moved

>  <fragmenstein_mode>  (601) 
expansion

>  <fragmenstein_error>  (601) 


$$$$
C49531-P44
     RDKit          3D

 41 43  0  0  0  0  0  0  0  0999 V2000
    8.3135    2.0792   15.8800 C   0  0  0  0  0  0  0  0  0  0  0  0
    8.4040    0.6525   16.5356 C   0  0  0  0  0  0  0  0  0  0  0  0
    7.7094   -0.4135   15.6901 C   0  0  0  0  0  0  0  0  0  0  0  0
    9.8503    0.3098   16.2237 C   0  0  0  0  0  0  0  0  0  0  0  0
   10.7134    1.0517   15.7722 O   0  0  0  0  0  0  0  0  0  0  0  0
   10.1707   -0.9939   16.3859 O   0  0  0  0  0  0  0  0  0  0  0  0
    7.9647    0.7321   18.0032 N   0  0  0  0  0  0  0  0  0  0  0  0
    8.1869    1.9008   18.6520 C   0  0  0  0  0  0  0  0  0  0  0  0
    7.7602    1.5158   19.8782 C   0  0  0  0  0  0  0  0  0  0  0  0
    6.4716    0.3644   20.0315 C   0  0  0  0  0  0  0  0  0  0  0  0
    4.9249    1.0261   21.0962 N   0  0  0  0  0  0  0  0  0  0  0  0
    4.6491    1.0261   22.8430 C   0  0  0  0  0  0  0  0  0  0  0  0
    5.3133    0.5075   23.7759 O   0  0  0  0  0  0  0  0  0  0  0  0
    3.3359    2.0430   23.4544 C   0  0  0  0  0  0  0  0  0  0  0  0
    2.4242    3.0892   22.7539 C   0  0  0  0  0  0  0  0  0  0  0  0
    1.4773    3.5201   23.8964 C   0  0  0  0  0  0  0  0  0  0  0  0
    2.2586    3.1225   25.1579 C   0  0  0  0  0  0  0  0  0  0  0  0
    3.5296    3.9259   25.2152 C   0  0  0  0  0  0  0  0  0  0  0  0
    4.3594    3.1865   24.1620 C   0  0  0  0  0  0  0  0  0  0  0  0
    2.7848    1.7894   24.8152 N   0  0  0  0  0  0  0  0  0  0  0  0
    6.9025   -0.0168   18.6644 N   0  0  0  0  0  0  0  0  0  0  0  0
    8.5623    2.0257   14.8160 H   0  0  0  0  0  0  0  0  0  0  0  0
    9.0556    2.7763   16.2910 H   0  0  0  0  0  0  0  0  0  0  0  0
    7.3529    2.5807   16.0017 H   0  0  0  0  0  0  0  0  0  0  0  0
    7.8105   -0.2205   14.6213 H   0  0  0  0  0  0  0  0  0  0  0  0
    6.6967   -0.4948   16.0098 H   0  0  0  0  0  0  0  0  0  0  0  0
    8.1071   -1.4273   15.7661 H   0  0  0  0  0  0  0  0  0  0  0  0
   11.0181   -1.1066   15.8968 H   0  0  0  0  0  0  0  0  0  0  0  0
    8.9656    2.5924   18.3631 H   0  0  0  0  0  0  0  0  0  0  0  0
    8.7118    1.2085   20.3155 H   0  0  0  0  0  0  0  0  0  0  0  0
    4.1521    1.4520   20.6368 H   0  0  0  0  0  0  0  0  0  0  0  0
    1.9280    2.7861   21.8315 H   0  0  0  0  0  0  0  0  0  0  0  0
    2.9679    3.9890   22.4353 H   0  0  0  0  0  0  0  0  0  0  0  0
    1.2709    4.5949   23.8543 H   0  0  0  0  0  0  0  0  0  0  0  0
    0.5166    2.9993   23.8526 H   0  0  0  0  0  0  0  0  0  0  0  0
    1.6622    3.1561   26.0721 H   0  0  0  0  0  0  0  0  0  0  0  0
    4.0131    3.8605   26.1966 H   0  0  0  0  0  0  0  0  0  0  0  0
    3.3904    4.9826   24.9659 H   0  0  0  0  0  0  0  0  0  0  0  0
    5.1936    2.7323   24.7097 H   0  0  0  0  0  0  0  0  0  0  0  0
    4.7831    3.8761   23.4273 H   0  0  0  0  0  0  0  0  0  0  0  0
    3.5354    1.4699   25.4329 H   0  0  0  0  0  0  0  0  0  0  0  0
  1  2  1  0
  2  3  1  0
  2  4  1  0
  4  5  2  0
  4  6  1  0
  2  7  1  0
  7  8  1  0
  8  9  2  0
  9 10  1  0
 10 11  1  0
 11 12  1  0
 12 13  2  0
 12 14  1  0
 14 15  1  0
 15 16  1  0
 16 17  1  0
 17 18  1  0
 18 19  1  0
 17 20  1  0
 10 21  2  0
 21  7  1  0
 19 14  1  0
 20 14  1  0
  1 22  1  0
  1 23  1  0
  1 24  1  0
  3 25  1  0
  3 26  1  0
  3 27  1  0
  6 28  1  0
  8 29  1  0
  9 30  1  0
 11 31  1  0
 15 32  1  0
 15 33  1  0
 16 34  1  0
 16 35  1  0
 17 36  1  0
 18 37  1  0
 18 38  1  0
 19 39  1  0
 19 40  1  0
 20 41  1  0
M  END
>  <Energy>  (602) 
414.37309871652724

>  <compound_id>  (602) 
49531

>  <target_id>  (602) 
1

>  <reference_id>  (602) 
44

>  <inspiration_ids>  (602) 
[122, 44]

>  <energy_score>  (602) 
327.97671766890977

>  <distance_score>  (602) 
6.423925662624154

>  <path>  (602) 
/opt/xchem-fragalysis-2/maxwin/BulkDock/SCRATCH/511025/C49531-P44/C49531-P44.minimised.mol

>  <scratch_subdir>  (602) 
/opt/xchem-fragalysis-2/maxwin/BulkDock/SCRATCH/511025/C49531-P44

>  <fragmenstein_runtime>  (602) 
12.872278213500977

>  <fragmenstein_outcome>  (602) 
too moved

>  <fragmenstein_mode>  (602) 
expansion

>  <fragmenstein_error>  (602) 


$$$$
C49532-P122
     RDKit          3D

 38 40  0  0  0  0  0  0  0  0999 V2000
    8.0513   -0.7623   15.6589 C   0  0  0  0  0  0  0  0  0  0  0  0
    8.7634    0.1503   16.6544 C   0  0  0  0  0  0  0  0  0  0  0  0
    8.6861    1.6473   16.1958 C   0  0  0  0  0  0  0  0  0  0  0  0
   10.2520   -0.1123   16.2971 C   0  0  0  0  0  0  0  0  0  0  0  0
   11.1271    0.7106   16.0595 O   0  0  0  0  0  0  0  0  0  0  0  0
   10.5809   -1.4106   16.1450 O   0  0  0  0  0  0  0  0  0  0  0  0
    8.0453    0.0353   18.0911 N   0  0  0  0  0  0  0  0  0  0  0  0
    7.6773    1.2195   18.7575 C   0  0  0  0  0  0  0  0  0  0  0  0
    7.0095    0.4738   19.6943 C   0  0  0  0  0  0  0  0  0  0  0  0
    7.0396   -0.7793   20.3488 C   0  0  0  0  0  0  0  0  0  0  0  0
    5.7936   -0.9942   21.7508 N   0  0  0  0  0  0  0  0  0  0  0  0
    5.7196   -2.1843   23.1324 C   0  0  0  0  0  0  0  0  0  0  0  0
    6.5159   -3.1645   23.2836 O   0  0  0  0  0  0  0  0  0  0  0  0
    4.6593   -2.0786   24.5499 C   0  0  0  0  0  0  0  0  0  0  0  0
    5.1417   -3.1851   25.6059 C   0  0  0  0  0  0  0  0  0  0  0  0
    3.9854   -3.4839   26.4917 N   0  0  0  0  0  0  0  0  0  0  0  0
    3.1861   -2.2666   26.5654 C   0  0  0  0  0  0  0  0  0  0  0  0
    3.4695   -1.5985   25.2552 C   0  0  0  0  0  0  0  0  0  0  0  0
    4.5874   -0.6968   25.3412 C   0  0  0  0  0  0  0  0  0  0  0  0
    8.1009   -1.0611   19.4535 N   0  0  0  0  0  0  0  0  0  0  0  0
    7.0097   -0.7963   15.8875 H   0  0  0  0  0  0  0  0  0  0  0  0
    8.2331   -0.4559   14.6257 H   0  0  0  0  0  0  0  0  0  0  0  0
    8.3690   -1.8015   15.6792 H   0  0  0  0  0  0  0  0  0  0  0  0
    9.0655    1.7681   15.1740 H   0  0  0  0  0  0  0  0  0  0  0  0
    9.3234    2.2832   16.8249 H   0  0  0  0  0  0  0  0  0  0  0  0
    7.6934    2.0898   16.2248 H   0  0  0  0  0  0  0  0  0  0  0  0
   11.4961   -1.3982   15.7883 H   0  0  0  0  0  0  0  0  0  0  0  0
    7.6785    2.2379   18.3865 H   0  0  0  0  0  0  0  0  0  0  0  0
    6.0828    0.3563   19.2446 H   0  0  0  0  0  0  0  0  0  0  0  0
    5.1027   -0.2611   21.9066 H   0  0  0  0  0  0  0  0  0  0  0  0
    5.4964   -4.1301   25.1951 H   0  0  0  0  0  0  0  0  0  0  0  0
    5.9672   -2.7758   26.2020 H   0  0  0  0  0  0  0  0  0  0  0  0
    3.4223   -4.1678   25.9922 H   0  0  0  0  0  0  0  0  0  0  0  0
    3.5200   -1.6573   27.4144 H   0  0  0  0  0  0  0  0  0  0  0  0
    2.1371   -2.4889   26.7598 H   0  0  0  0  0  0  0  0  0  0  0  0
    2.6356   -1.3012   24.7067 H   0  0  0  0  0  0  0  0  0  0  0  0
    4.2487    0.2544   24.9912 H   0  0  0  0  0  0  0  0  0  0  0  0
    5.1689   -0.6123   26.2545 H   0  0  0  0  0  0  0  0  0  0  0  0
  1  2  1  0
  2  3  1  0
  2  4  1  0
  4  5  2  0
  4  6  1  0
  2  7  1  0
  7  8  1  0
  8  9  2  0
  9 10  1  0
 10 11  1  0
 11 12  1  0
 12 13  2  0
 12 14  1  0
 14 15  1  0
 15 16  1  0
 16 17  1  0
 17 18  1  0
 18 19  1  0
 10 20  2  0
 20  7  1  0
 18 14  1  0
 19 14  1  0
  1 21  1  0
  1 22  1  0
  1 23  1  0
  3 24  1  0
  3 25  1  0
  3 26  1  0
  6 27  1  0
  8 28  1  0
  9 29  1  0
 11 30  1  0
 15 31  1  0
 15 32  1  0
 16 33  1  0
 17 34  1  0
 17 35  1  0
 18 36  1  0
 19 37  1  0
 19 38  1  0
M  END
>  <Energy>  (603) 
416.22288202476693

>  <compound_id>  (603) 
49532

>  <target_id>  (603) 
1

>  <reference_id>  (603) 
122

>  <inspiration_ids>  (603) 
[122, 44]

>  <energy_score>  (603) 
384.22174137454095

>  <distance_score>  (603) 
7.454952505580959

>  <path>  (603) 
/opt/xchem-fragalysis-2/maxwin/BulkDock/SCRATCH/511025/C49532-P122/C49532-P122.minimised.mol

>  <scratch_subdir>  (603) 
/opt/xchem-fragalysis-2/maxwin/BulkDock/SCRATCH/511025/C49532-P122

>  <fragmenstein_runtime>  (603) 
7.979166269302368

>  <fragmenstein_outcome>  (603) 
too moved

>  <fragmenstein_mode>  (603) 
expansion

>  <fragmenstein_error>  (603) 


$$$$
C49532-P44
     RDKit          3D

 38 40  0  0  0  0  0  0  0  0999 V2000
    8.7109    1.8866   16.9754 C   0  0  0  0  0  0  0  0  0  0  0  0
    8.4256    3.3494   16.5968 C   0  0  0  0  0  0  0  0  0  0  0  0
    7.3445    3.4743   15.5015 C   0  0  0  0  0  0  0  0  0  0  0  0
    9.6669    3.9681   15.9416 C   0  0  0  0  0  0  0  0  0  0  0  0
   10.0354    5.1333   15.9729 O   0  0  0  0  0  0  0  0  0  0  0  0
   10.3666    3.1031   15.1666 O   0  0  0  0  0  0  0  0  0  0  0  0
    8.0583    4.0874   17.8186 N   0  0  0  0  0  0  0  0  0  0  0  0
    8.9065    4.6259   18.7352 C   0  0  0  0  0  0  0  0  0  0  0  0
    8.1082    5.4367   19.5320 C   0  0  0  0  0  0  0  0  0  0  0  0
    6.7227    5.1314   19.2571 C   0  0  0  0  0  0  0  0  0  0  0  0
    5.5135    5.1969   20.1294 N   0  0  0  0  0  0  0  0  0  0  0  0
    5.3418    5.7363   21.6151 C   0  0  0  0  0  0  0  0  0  0  0  0
    6.1147    6.2753   22.3251 O   0  0  0  0  0  0  0  0  0  0  0  0
    3.9082    5.4331   22.4237 C   0  0  0  0  0  0  0  0  0  0  0  0
    3.9680    4.4665   23.6562 C   0  0  0  0  0  0  0  0  0  0  0  0
    2.5735    4.2001   24.1299 N   0  0  0  0  0  0  0  0  0  0  0  0
    1.7285    4.3762   22.9408 C   0  0  0  0  0  0  0  0  0  0  0  0
    2.4737    5.3272   22.0216 C   0  0  0  0  0  0  0  0  0  0  0  0
    2.9607    6.6309   22.5751 C   0  0  0  0  0  0  0  0  0  0  0  0
    6.7499    4.3769   18.1128 N   0  0  0  0  0  0  0  0  0  0  0  0
    9.7426    1.7549   17.3075 H   0  0  0  0  0  0  0  0  0  0  0  0
    8.0920    1.5381   17.8068 H   0  0  0  0  0  0  0  0  0  0  0  0
    8.5641    1.2114   16.1252 H   0  0  0  0  0  0  0  0  0  0  0  0
    7.2472    4.5147   15.1652 H   0  0  0  0  0  0  0  0  0  0  0  0
    6.3531    3.1632   15.8329 H   0  0  0  0  0  0  0  0  0  0  0  0
    7.6021    2.8760   14.6194 H   0  0  0  0  0  0  0  0  0  0  0  0
   11.0730    3.6662   14.7876 H   0  0  0  0  0  0  0  0  0  0  0  0
    9.9785    4.4901   18.7044 H   0  0  0  0  0  0  0  0  0  0  0  0
    8.4670    6.0397   20.3562 H   0  0  0  0  0  0  0  0  0  0  0  0
    4.6764    4.7148   19.8466 H   0  0  0  0  0  0  0  0  0  0  0  0
    4.4316    3.5214   23.3694 H   0  0  0  0  0  0  0  0  0  0  0  0
    4.5593    4.9146   24.4613 H   0  0  0  0  0  0  0  0  0  0  0  0
    2.3410    4.9494   24.7816 H   0  0  0  0  0  0  0  0  0  0  0  0
    1.6089    3.4235   22.4248 H   0  0  0  0  0  0  0  0  0  0  0  0
    0.7395    4.7616   23.2055 H   0  0  0  0  0  0  0  0  0  0  0  0
    2.2131    5.2411   20.9783 H   0  0  0  0  0  0  0  0  0  0  0  0
    3.0842    7.4577   21.8836 H   0  0  0  0  0  0  0  0  0  0  0  0
    2.6810    6.9424   23.5737 H   0  0  0  0  0  0  0  0  0  0  0  0
  1  2  1  0
  2  3  1  0
  2  4  1  0
  4  5  2  0
  4  6  1  0
  2  7  1  0
  7  8  1  0
  8  9  2  0
  9 10  1  0
 10 11  1  0
 11 12  1  0
 12 13  2  0
 12 14  1  0
 14 15  1  0
 15 16  1  0
 16 17  1  0
 17 18  1  0
 18 19  1  0
 10 20  2  0
 20  7  1  0
 18 14  1  0
 19 14  1  0
  1 21  1  0
  1 22  1  0
  1 23  1  0
  3 24  1  0
  3 25  1  0
  3 26  1  0
  6 27  1  0
  8 28  1  0
  9 29  1  0
 11 30  1  0
 15 31  1  0
 15 32  1  0
 16 33  1  0
 17 34  1  0
 17 35  1  0
 18 36  1  0
 19 37  1  0
 19 38  1  0
M  END
>  <Energy>  (604) 
30.232898662110777

>  <compound_id>  (604) 
49532

>  <target_id>  (604) 
1

>  <reference_id>  (604) 
44

>  <inspiration_ids>  (604) 
[122, 44]

>  <energy_score>  (604) 
-19.868068066186197

>  <distance_score>  (604) 
8.273784823249391

>  <path>  (604) 
/opt/xchem-fragalysis-2/maxwin/BulkDock/SCRATCH/511025/C49532-P44/C49532-P44.minimised.mol

>  <scratch_subdir>  (604) 
/opt/xchem-fragalysis-2/maxwin/BulkDock/SCRATCH/511025/C49532-P44

>  <fragmenstein_runtime>  (604) 
9.286404132843018

>  <fragmenstein_outcome>  (604) 
too moved

>  <fragmenstein_mode>  (604) 
expansion

>  <fragmenstein_error>  (604) 


$$$$
C51126-P122
     RDKit          3D

 44 46  0  0  0  0  0  0  0  0999 V2000
    8.1115    2.6929   16.2323 C   0  0  0  0  0  0  0  0  0  0  0  0
    8.5928    1.2925   16.6691 C   0  0  0  0  0  0  0  0  0  0  0  0
    8.3282    0.0426   15.7882 C   0  0  0  0  0  0  0  0  0  0  0  0
   10.1224    1.3920   16.4931 C   0  0  0  0  0  0  0  0  0  0  0  0
   10.8827    0.5005   16.1291 O   0  0  0  0  0  0  0  0  0  0  0  0
   10.6882    2.6066   16.6752 O   0  0  0  0  0  0  0  0  0  0  0  0
    8.0136    1.0179   18.0193 N   0  0  0  0  0  0  0  0  0  0  0  0
    7.4686    1.8669   19.0392 C   0  0  0  0  0  0  0  0  0  0  0  0
    7.5860    1.3456   20.5658 C   0  0  0  0  0  0  0  0  0  0  0  0
    6.4674    1.8530   21.3717 N   0  0  0  0  0  0  0  0  0  0  0  0
    4.9090    0.9096   22.0010 C   0  0  0  0  0  0  0  0  0  0  0  0
    4.7605   -0.2621   21.8890 O   0  0  0  0  0  0  0  0  0  0  0  0
    3.2266    2.0060   22.7575 C   0  0  0  0  0  0  0  0  0  0  0  0
    2.1610    2.3855   21.6535 C   0  0  0  0  0  0  0  0  0  0  0  0
    1.2606    3.5069   22.0709 C   0  0  0  0  0  0  0  0  0  0  0  0
    2.3279    4.5203   22.3356 C   0  0  0  0  0  0  0  0  0  0  0  0
    3.4603    3.8066   22.9932 N   0  0  0  0  0  0  0  0  0  0  0  0
    3.4332    4.2182   24.4277 C   0  0  0  0  0  0  0  0  0  0  0  0
    2.6150    3.2280   25.1796 C   0  0  0  0  0  0  0  0  0  0  0  0
    2.5205    1.9542   24.3320 C   0  0  0  0  0  0  0  0  0  0  0  0
    7.3991   -0.0646   19.8388 C   0  0  0  0  0  0  0  0  0  0  0  0
    7.7002   -0.2240   18.5103 N   0  0  0  0  0  0  0  0  0  0  0  0
    8.3462    3.4562   16.9856 H   0  0  0  0  0  0  0  0  0  0  0  0
    7.0339    2.7749   16.0839 H   0  0  0  0  0  0  0  0  0  0  0  0
    8.6579    3.0488   15.3541 H   0  0  0  0  0  0  0  0  0  0  0  0
    8.5875    0.2215   14.7403 H   0  0  0  0  0  0  0  0  0  0  0  0
    8.9572   -0.8077   16.0803 H   0  0  0  0  0  0  0  0  0  0  0  0
    7.3214   -0.3684   15.8912 H   0  0  0  0  0  0  0  0  0  0  0  0
   11.6319    2.4591   16.4485 H   0  0  0  0  0  0  0  0  0  0  0  0
    7.2014    2.8623   18.6909 H   0  0  0  0  0  0  0  0  0  0  0  0
    6.3329    2.8836   21.5012 H   0  0  0  0  0  0  0  0  0  0  0  0
    1.7733    1.4635   21.3820 H   0  0  0  0  0  0  0  0  0  0  0  0
    2.4838    2.7138   20.6614 H   0  0  0  0  0  0  0  0  0  0  0  0
    0.5950    3.8207   21.2603 H   0  0  0  0  0  0  0  0  0  0  0  0
    0.6431    3.3059   22.9476 H   0  0  0  0  0  0  0  0  0  0  0  0
    2.7074    4.9295   21.3899 H   0  0  0  0  0  0  0  0  0  0  0  0
    1.9319    5.3809   22.8862 H   0  0  0  0  0  0  0  0  0  0  0  0
    3.0749    5.2435   24.5828 H   0  0  0  0  0  0  0  0  0  0  0  0
    4.4564    4.2571   24.8244 H   0  0  0  0  0  0  0  0  0  0  0  0
    1.6118    3.6358   25.3613 H   0  0  0  0  0  0  0  0  0  0  0  0
    3.0448    3.0135   26.1647 H   0  0  0  0  0  0  0  0  0  0  0  0
    1.4454    1.8921   24.3240 H   0  0  0  0  0  0  0  0  0  0  0  0
    2.9272    1.1170   24.9118 H   0  0  0  0  0  0  0  0  0  0  0  0
    7.1173   -0.9446   20.3705 H   0  0  0  0  0  0  0  0  0  0  0  0
  1  2  1  0
  2  3  1  0
  2  4  1  0
  4  5  2  0
  4  6  1  0
  2  7  1  0
  7  8  1  0
  8  9  2  0
  9 10  1  0
 10 11  1  0
 11 12  2  0
 11 13  1  0
 13 14  1  0
 14 15  1  0
 15 16  1  0
 16 17  1  0
 17 18  1  0
 18 19  1  0
 19 20  1  0
  9 21  1  0
 21 22  2  0
 22  7  1  0
 17 13  1  0
 20 13  1  0
  1 23  1  0
  1 24  1  0
  1 25  1  0
  3 26  1  0
  3 27  1  0
  3 28  1  0
  6 29  1  0
  8 30  1  0
 10 31  1  0
 14 32  1  0
 14 33  1  0
 15 34  1  0
 15 35  1  0
 16 36  1  0
 16 37  1  0
 18 38  1  0
 18 39  1  0
 19 40  1  0
 19 41  1  0
 20 42  1  0
 20 43  1  0
 21 44  1  0
M  END
>  <Energy>  (605) 
427.88064429116145

>  <compound_id>  (605) 
51126

>  <target_id>  (605) 
1

>  <reference_id>  (605) 
122

>  <inspiration_ids>  (605) 
[122, 44]

>  <energy_score>  (605) 
318.38666230672635

>  <distance_score>  (605) 
7.062145140931207

>  <path>  (605) 
/opt/xchem-fragalysis-2/maxwin/BulkDock/SCRATCH/511025/C51126-P122/C51126-P122.minimised.mol

>  <scratch_subdir>  (605) 
/opt/xchem-fragalysis-2/maxwin/BulkDock/SCRATCH/511025/C51126-P122

>  <fragmenstein_runtime>  (605) 
17.3132963180542

>  <fragmenstein_outcome>  (605) 
too moved

>  <fragmenstein_mode>  (605) 
expansion

>  <fragmenstein_error>  (605) 


$$$$
C51126-P44
     RDKit          3D

 44 46  0  0  0  0  0  0  0  0999 V2000
    7.7901   -0.1909   15.8545 C   0  0  0  0  0  0  0  0  0  0  0  0
    8.3929    1.0647   16.5208 C   0  0  0  0  0  0  0  0  0  0  0  0
    7.8064    2.3032   15.7230 C   0  0  0  0  0  0  0  0  0  0  0  0
    9.8585    1.0600   16.0710 C   0  0  0  0  0  0  0  0  0  0  0  0
   10.4432    0.0905   15.6013 O   0  0  0  0  0  0  0  0  0  0  0  0
   10.4911    2.2489   16.1826 O   0  0  0  0  0  0  0  0  0  0  0  0
    8.3087    1.2441   18.0115 N   0  0  0  0  0  0  0  0  0  0  0  0
    7.5935    0.6681   19.1213 C   0  0  0  0  0  0  0  0  0  0  0  0
    7.3305    1.6622   20.1348 C   0  0  0  0  0  0  0  0  0  0  0  0
    6.0067    2.1491   21.3725 N   0  0  0  0  0  0  0  0  0  0  0  0
    4.9439    1.1280   22.5579 C   0  0  0  0  0  0  0  0  0  0  0  0
    4.8913   -0.1033   22.7279 O   0  0  0  0  0  0  0  0  0  0  0  0
    4.0313    2.3031   23.5867 C   0  0  0  0  0  0  0  0  0  0  0  0
    2.6649    2.8851   23.2151 C   0  0  0  0  0  0  0  0  0  0  0  0
    2.6640    4.3745   23.4846 C   0  0  0  0  0  0  0  0  0  0  0  0
    4.1112    4.7260   23.3456 C   0  0  0  0  0  0  0  0  0  0  0  0
    4.8573    3.5702   23.8608 N   0  0  0  0  0  0  0  0  0  0  0  0
    5.0710    3.6661   25.3236 C   0  0  0  0  0  0  0  0  0  0  0  0
    4.0914    2.7359   25.9967 C   0  0  0  0  0  0  0  0  0  0  0  0
    3.9977    1.6227   24.9887 C   0  0  0  0  0  0  0  0  0  0  0  0
    8.1124    2.7326   19.4523 C   0  0  0  0  0  0  0  0  0  0  0  0
    8.8726    2.3861   18.4214 N   0  0  0  0  0  0  0  0  0  0  0  0
    8.4229   -1.0732   15.9749 H   0  0  0  0  0  0  0  0  0  0  0  0
    7.7191   -0.0537   14.7664 H   0  0  0  0  0  0  0  0  0  0  0  0
    6.7874   -0.4327   16.1967 H   0  0  0  0  0  0  0  0  0  0  0  0
    7.7897    3.2242   16.3145 H   0  0  0  0  0  0  0  0  0  0  0  0
    6.7910    2.1323   15.3520 H   0  0  0  0  0  0  0  0  0  0  0  0
    8.3882    2.5149   14.8158 H   0  0  0  0  0  0  0  0  0  0  0  0
   10.1316    2.7687   16.9530 H   0  0  0  0  0  0  0  0  0  0  0  0
    7.1081   -0.2624   18.9511 H   0  0  0  0  0  0  0  0  0  0  0  0
    5.8779    3.1762   21.5376 H   0  0  0  0  0  0  0  0  0  0  0  0
    2.4309    2.7273   22.1627 H   0  0  0  0  0  0  0  0  0  0  0  0
    1.8758    2.4873   23.8504 H   0  0  0  0  0  0  0  0  0  0  0  0
    2.0284    4.9188   22.7794 H   0  0  0  0  0  0  0  0  0  0  0  0
    2.3005    4.5910   24.4951 H   0  0  0  0  0  0  0  0  0  0  0  0
    4.3566    4.8676   22.2874 H   0  0  0  0  0  0  0  0  0  0  0  0
    4.3673    5.6687   23.8412 H   0  0  0  0  0  0  0  0  0  0  0  0
    5.0056    4.6859   25.7182 H   0  0  0  0  0  0  0  0  0  0  0  0
    6.0932    3.3220   25.5255 H   0  0  0  0  0  0  0  0  0  0  0  0
    3.1186    3.2146   26.1455 H   0  0  0  0  0  0  0  0  0  0  0  0
    4.4516    2.3851   26.9683 H   0  0  0  0  0  0  0  0  0  0  0  0
    4.8680    0.9657   25.1186 H   0  0  0  0  0  0  0  0  0  0  0  0
    3.1264    1.0012   25.1679 H   0  0  0  0  0  0  0  0  0  0  0  0
    8.1432    3.7862   19.6535 H   0  0  0  0  0  0  0  0  0  0  0  0
  1  2  1  0
  2  3  1  0
  2  4  1  0
  4  5  2  0
  4  6  1  0
  2  7  1  0
  7  8  1  0
  8  9  2  0
  9 10  1  0
 10 11  1  0
 11 12  2  0
 11 13  1  0
 13 14  1  0
 14 15  1  0
 15 16  1  0
 16 17  1  0
 17 18  1  0
 18 19  1  0
 19 20  1  0
  9 21  1  0
 21 22  2  0
 22  7  1  0
 17 13  1  0
 20 13  1  0
  1 23  1  0
  1 24  1  0
  1 25  1  0
  3 26  1  0
  3 27  1  0
  3 28  1  0
  6 29  1  0
  8 30  1  0
 10 31  1  0
 14 32  1  0
 14 33  1  0
 15 34  1  0
 15 35  1  0
 16 36  1  0
 16 37  1  0
 18 38  1  0
 18 39  1  0
 19 40  1  0
 19 41  1  0
 20 42  1  0
 20 43  1  0
 21 44  1  0
M  END
>  <Energy>  (606) 
262.14525820148435

>  <compound_id>  (606) 
51126

>  <target_id>  (606) 
1

>  <reference_id>  (606) 
44

>  <inspiration_ids>  (606) 
[122, 44]

>  <energy_score>  (606) 
152.65127621705653

>  <distance_score>  (606) 
7.248067419757257

>  <path>  (606) 
/opt/xchem-fragalysis-2/maxwin/BulkDock/SCRATCH/511025/C51126-P44/C51126-P44.minimised.mol

>  <scratch_subdir>  (606) 
/opt/xchem-fragalysis-2/maxwin/BulkDock/SCRATCH/511025/C51126-P44

>  <fragmenstein_runtime>  (606) 
15.674516201019287

>  <fragmenstein_outcome>  (606) 
too moved

>  <fragmenstein_mode>  (606) 
expansion

>  <fragmenstein_error>  (606) 


$$$$
C9390-P122
     RDKit          3D

 43 44  0  0  0  0  0  0  0  0999 V2000
   12.0323    0.4777   15.6796 C   0  0  0  0  0  0  0  0  0  0  0  0
   10.8198    1.4462   15.6538 C   0  0  0  0  0  0  0  0  0  0  0  0
   11.1975    2.7097   16.4410 C   0  0  0  0  0  0  0  0  0  0  0  0
   10.6317    1.9425   14.2150 C   0  0  0  0  0  0  0  0  0  0  0  0
   10.0948    2.9794   13.8521 O   0  0  0  0  0  0  0  0  0  0  0  0
   11.1677    1.1500   13.2615 O   0  0  0  0  0  0  0  0  0  0  0  0
    9.6017    0.7527   16.1378 N   0  0  0  0  0  0  0  0  0  0  0  0
    8.9988   -0.2588   15.4720 C   0  0  0  0  0  0  0  0  0  0  0  0
    7.9310   -0.6133   16.2442 C   0  0  0  0  0  0  0  0  0  0  0  0
    8.0334    0.0301   17.5527 C   0  0  0  0  0  0  0  0  0  0  0  0
    6.9717   -0.1862   18.7808 N   0  0  0  0  0  0  0  0  0  0  0  0
    6.9200    0.4142   20.1795 C   0  0  0  0  0  0  0  0  0  0  0  0
    7.7233    1.1276   20.7274 O   0  0  0  0  0  0  0  0  0  0  0  0
    5.1976    0.2267   21.4039 C   0  0  0  0  0  0  0  0  0  0  0  0
    3.3708    1.2074   21.6688 C   0  0  0  0  0  0  0  0  0  0  0  0
    2.6223    2.5664   22.7316 C   0  0  0  0  0  0  0  0  0  0  0  0
    1.4233    3.2392   21.9747 C   0  0  0  0  0  0  0  0  0  0  0  0
    1.0338    4.4211   22.8301 C   0  0  0  0  0  0  0  0  0  0  0  0
    2.3810    4.9973   23.1339 C   0  0  0  0  0  0  0  0  0  0  0  0
    3.2717    3.8441   23.2722 N   0  0  0  0  0  0  0  0  0  0  0  0
    9.0238    0.9451   17.3603 N   0  0  0  0  0  0  0  0  0  0  0  0
   12.9186    0.9468   15.2346 H   0  0  0  0  0  0  0  0  0  0  0  0
   11.8339   -0.4418   15.1159 H   0  0  0  0  0  0  0  0  0  0  0  0
   12.3108    0.1685   16.6886 H   0  0  0  0  0  0  0  0  0  0  0  0
   11.7193    2.4600   17.3651 H   0  0  0  0  0  0  0  0  0  0  0  0
   11.8910    3.3443   15.8742 H   0  0  0  0  0  0  0  0  0  0  0  0
   10.3184    3.3212   16.6713 H   0  0  0  0  0  0  0  0  0  0  0  0
   11.0157    1.6478   12.4334 H   0  0  0  0  0  0  0  0  0  0  0  0
    9.3200   -0.5755   14.4941 H   0  0  0  0  0  0  0  0  0  0  0  0
    7.2107   -1.3388   15.9138 H   0  0  0  0  0  0  0  0  0  0  0  0
    6.1813   -0.8041   18.6596 H   0  0  0  0  0  0  0  0  0  0  0  0
    5.1934   -0.7558   21.8962 H   0  0  0  0  0  0  0  0  0  0  0  0
    5.5963    0.8678   22.0866 H   0  0  0  0  0  0  0  0  0  0  0  0
    2.4713    0.7670   21.3483 H   0  0  0  0  0  0  0  0  0  0  0  0
    2.9597    1.7633   20.7779 H   0  0  0  0  0  0  0  0  0  0  0  0
    2.2924    2.0772   23.6543 H   0  0  0  0  0  0  0  0  0  0  0  0
    0.5357    2.6365   21.8162 H   0  0  0  0  0  0  0  0  0  0  0  0
    1.7509    3.5926   20.9877 H   0  0  0  0  0  0  0  0  0  0  0  0
    0.5254    4.0878   23.7423 H   0  0  0  0  0  0  0  0  0  0  0  0
    0.3849    5.1242   22.3005 H   0  0  0  0  0  0  0  0  0  0  0  0
    2.7355    5.6197   22.3045 H   0  0  0  0  0  0  0  0  0  0  0  0
    2.3733    5.6169   24.0360 H   0  0  0  0  0  0  0  0  0  0  0  0
    3.3773    3.6969   24.2788 H   0  0  0  0  0  0  0  0  0  0  0  0
  1  2  1  0
  2  3  1  0
  2  4  1  0
  4  5  2  0
  4  6  1  0
  2  7  1  0
  7  8  1  0
  8  9  2  0
  9 10  1  0
 10 11  1  0
 11 12  1  0
 12 13  2  0
 12 14  1  0
 14 15  1  0
 15 16  1  0
 16 17  1  0
 17 18  1  0
 18 19  1  0
 19 20  1  0
 10 21  2  0
 21  7  1  0
 20 16  1  0
  1 22  1  0
  1 23  1  0
  1 24  1  0
  3 25  1  0
  3 26  1  0
  3 27  1  0
  6 28  1  0
  8 29  1  0
  9 30  1  0
 11 31  1  0
 14 32  1  0
 14 33  1  0
 15 34  1  0
 15 35  1  0
 16 36  1  0
 17 37  1  0
 17 38  1  0
 18 39  1  0
 18 40  1  0
 19 41  1  0
 19 42  1  0
 20 43  1  0
M  END
>  <Energy>  (607) 
298.55546934881113

>  <compound_id>  (607) 
9390

>  <target_id>  (607) 
1

>  <reference_id>  (607) 
122

>  <inspiration_ids>  (607) 
[122, 44]

>  <energy_score>  (607) 
277.5274975755772

>  <distance_score>  (607) 
6.07602442293642

>  <path>  (607) 
/opt/xchem-fragalysis-2/maxwin/BulkDock/SCRATCH/511025/C9390-P122/C9390-P122.minimised.mol

>  <scratch_subdir>  (607) 
/opt/xchem-fragalysis-2/maxwin/BulkDock/SCRATCH/511025/C9390-P122

>  <fragmenstein_runtime>  (607) 
13.495659351348877

>  <fragmenstein_outcome>  (607) 
too moved

>  <fragmenstein_mode>  (607) 
expansion

>  <fragmenstein_error>  (607) 


$$$$
C9390-P44
     RDKit          3D

 43 44  0  0  0  0  0  0  0  0999 V2000
    9.6707    0.8510   14.0006 C   0  0  0  0  0  0  0  0  0  0  0  0
   10.2686    0.3898   15.3333 C   0  0  0  0  0  0  0  0  0  0  0  0
   10.0883   -1.1286   15.4229 C   0  0  0  0  0  0  0  0  0  0  0  0
   11.7437    0.7675   15.1590 C   0  0  0  0  0  0  0  0  0  0  0  0
   12.1763    1.8673   14.8360 O   0  0  0  0  0  0  0  0  0  0  0  0
   12.6226   -0.2394   15.3468 O   0  0  0  0  0  0  0  0  0  0  0  0
    9.6352    1.1172   16.4662 N   0  0  0  0  0  0  0  0  0  0  0  0
    9.6028    2.4795   16.5624 C   0  0  0  0  0  0  0  0  0  0  0  0
    8.8880    2.7773   17.6875 C   0  0  0  0  0  0  0  0  0  0  0  0
    8.4379    1.5454   18.2314 C   0  0  0  0  0  0  0  0  0  0  0  0
    7.3462    1.6159   19.0967 N   0  0  0  0  0  0  0  0  0  0  0  0
    6.5530    0.4173   20.0153 C   0  0  0  0  0  0  0  0  0  0  0  0
    6.9336   -0.7260   20.0953 O   0  0  0  0  0  0  0  0  0  0  0  0
    4.7013    0.8166   21.0882 C   0  0  0  0  0  0  0  0  0  0  0  0
    2.9389    1.7536   21.4776 C   0  0  0  0  0  0  0  0  0  0  0  0
    2.9187    2.8151   22.8086 C   0  0  0  0  0  0  0  0  0  0  0  0
    1.6567    3.6925   22.9507 C   0  0  0  0  0  0  0  0  0  0  0  0
    1.2265    3.5559   24.4027 C   0  0  0  0  0  0  0  0  0  0  0  0
    2.4620    3.0510   25.1219 C   0  0  0  0  0  0  0  0  0  0  0  0
    3.2262    2.2918   24.1417 N   0  0  0  0  0  0  0  0  0  0  0  0
    8.9812    0.5107   17.5354 N   0  0  0  0  0  0  0  0  0  0  0  0
   10.2881    0.5345   13.1524 H   0  0  0  0  0  0  0  0  0  0  0  0
    9.6259    1.9412   13.9251 H   0  0  0  0  0  0  0  0  0  0  0  0
    8.6744    0.4364   13.8699 H   0  0  0  0  0  0  0  0  0  0  0  0
   10.5332   -1.6401   14.5623 H   0  0  0  0  0  0  0  0  0  0  0  0
    9.0283   -1.4010   15.4608 H   0  0  0  0  0  0  0  0  0  0  0  0
   10.5901   -1.5372   16.3013 H   0  0  0  0  0  0  0  0  0  0  0  0
   13.5050    0.1784   15.2436 H   0  0  0  0  0  0  0  0  0  0  0  0
   10.0814    3.1295   15.8432 H   0  0  0  0  0  0  0  0  0  0  0  0
    8.6262    3.7726   18.0153 H   0  0  0  0  0  0  0  0  0  0  0  0
    6.8974    2.4934   19.2546 H   0  0  0  0  0  0  0  0  0  0  0  0
    4.5415   -0.1983   21.5190 H   0  0  0  0  0  0  0  0  0  0  0  0
    4.8789    1.1219   22.1818 H   0  0  0  0  0  0  0  0  0  0  0  0
    2.0817    1.2515   21.1457 H   0  0  0  0  0  0  0  0  0  0  0  0
    2.5433    2.4599   20.6754 H   0  0  0  0  0  0  0  0  0  0  0  0
    3.7049    3.5678   22.6630 H   0  0  0  0  0  0  0  0  0  0  0  0
    0.8484    3.4486   22.2558 H   0  0  0  0  0  0  0  0  0  0  0  0
    1.9215    4.7400   22.7550 H   0  0  0  0  0  0  0  0  0  0  0  0
    0.4049    2.8398   24.4864 H   0  0  0  0  0  0  0  0  0  0  0  0
    0.8725    4.5070   24.8130 H   0  0  0  0  0  0  0  0  0  0  0  0
    3.0678    3.8987   25.4621 H   0  0  0  0  0  0  0  0  0  0  0  0
    2.2131    2.4509   26.0021 H   0  0  0  0  0  0  0  0  0  0  0  0
    3.1067    1.2803   24.1604 H   0  0  0  0  0  0  0  0  0  0  0  0
  1  2  1  0
  2  3  1  0
  2  4  1  0
  4  5  2  0
  4  6  1  0
  2  7  1  0
  7  8  1  0
  8  9  2  0
  9 10  1  0
 10 11  1  0
 11 12  1  0
 12 13  2  0
 12 14  1  0
 14 15  1  0
 15 16  1  0
 16 17  1  0
 17 18  1  0
 18 19  1  0
 19 20  1  0
 10 21  2  0
 21  7  1  0
 20 16  1  0
  1 22  1  0
  1 23  1  0
  1 24  1  0
  3 25  1  0
  3 26  1  0
  3 27  1  0
  6 28  1  0
  8 29  1  0
  9 30  1  0
 11 31  1  0
 14 32  1  0
 14 33  1  0
 15 34  1  0
 15 35  1  0
 16 36  1  0
 17 37  1  0
 17 38  1  0
 18 39  1  0
 18 40  1  0
 19 41  1  0
 19 42  1  0
 20 43  1  0
M  END
>  <Energy>  (608) 
273.92292365828303

>  <compound_id>  (608) 
9390

>  <target_id>  (608) 
1

>  <reference_id>  (608) 
44

>  <inspiration_ids>  (608) 
[122, 44]

>  <energy_score>  (608) 
252.89495188506106

>  <distance_score>  (608) 
5.904196604491829

>  <path>  (608) 
/opt/xchem-fragalysis-2/maxwin/BulkDock/SCRATCH/511025/C9390-P44/C9390-P44.minimised.mol

>  <scratch_subdir>  (608) 
/opt/xchem-fragalysis-2/maxwin/BulkDock/SCRATCH/511025/C9390-P44

>  <fragmenstein_runtime>  (608) 
9.125223398208618

>  <fragmenstein_outcome>  (608) 
too moved

>  <fragmenstein_mode>  (608) 
expansion

>  <fragmenstein_error>  (608) 


$$$$
C51128-P122
     RDKit          3D

 52 53  0  0  0  0  0  0  0  0999 V2000
   10.1240    0.1672   14.2790 C   0  0  0  0  0  0  0  0  0  0  0  0
    9.4074   -0.4196   15.4981 C   0  0  0  0  0  0  0  0  0  0  0  0
    8.4359    0.5179   16.2617 C   0  0  0  0  0  0  0  0  0  0  0  0
    8.3489    0.1434   17.6364 N   0  0  0  0  0  0  0  0  0  0  0  0
    7.0082   -0.4343   18.6146 C   0  0  0  0  0  0  0  0  0  0  0  0
    5.9755   -0.6497   18.0955 O   0  0  0  0  0  0  0  0  0  0  0  0
    6.9201   -0.9754   20.4126 C   0  0  0  0  0  0  0  0  0  0  0  0
    7.8460   -1.5597   20.6659 O   0  0  0  0  0  0  0  0  0  0  0  0
    5.5598   -0.9186   21.6814 N   0  0  0  0  0  0  0  0  0  0  0  0
    5.3562   -1.7631   23.2167 C   0  0  0  0  0  0  0  0  0  0  0  0
    4.0922   -1.8321   24.3482 C   0  0  0  0  0  0  0  0  0  0  0  0
    4.1150   -0.8034   25.5368 C   0  0  0  0  0  0  0  0  0  0  0  0
    2.9743   -0.6766   26.4611 N   0  0  0  0  0  0  0  0  0  0  0  0
    2.7432   -1.8089   27.3541 C   0  0  0  0  0  0  0  0  0  0  0  0
    1.4674   -1.6225   28.2293 C   0  0  0  0  0  0  0  0  0  0  0  0
    0.8297   -0.2900   28.1412 N   0  0  0  0  0  0  0  0  0  0  0  0
    1.8759    0.7372   28.2654 C   0  0  0  0  0  0  0  0  0  0  0  0
    3.0250    0.5829   27.2346 C   0  0  0  0  0  0  0  0  0  0  0  0
    8.9784    1.9225   16.3069 C   0  0  0  0  0  0  0  0  0  0  0  0
    8.2819    3.1462   16.2335 C   0  0  0  0  0  0  0  0  0  0  0  0
    9.2544    4.1153   16.2875 C   0  0  0  0  0  0  0  0  0  0  0  0
   10.4377    3.4577   16.4293 N   0  0  0  0  0  0  0  0  0  0  0  0
   11.7495    4.0475   16.5424 C   0  0  0  0  0  0  0  0  0  0  0  0
   10.2955    2.1275   16.4781 N   0  0  0  0  0  0  0  0  0  0  0  0
    9.4202    0.3810   13.4769 H   0  0  0  0  0  0  0  0  0  0  0  0
   10.6896    1.0796   14.4617 H   0  0  0  0  0  0  0  0  0  0  0  0
   10.8829   -0.5399   13.9290 H   0  0  0  0  0  0  0  0  0  0  0  0
   10.2146   -0.7489   16.1602 H   0  0  0  0  0  0  0  0  0  0  0  0
    8.8682   -1.3315   15.2160 H   0  0  0  0  0  0  0  0  0  0  0  0
    7.4394    0.4453   15.9039 H   0  0  0  0  0  0  0  0  0  0  0  0
    9.1152    0.1854   18.1742 H   0  0  0  0  0  0  0  0  0  0  0  0
    4.8579   -0.3044   21.3694 H   0  0  0  0  0  0  0  0  0  0  0  0
    5.1560   -2.4767   22.4812 H   0  0  0  0  0  0  0  0  0  0  0  0
    6.0229   -2.3841   23.7400 H   0  0  0  0  0  0  0  0  0  0  0  0
    3.1424   -1.9809   23.8637 H   0  0  0  0  0  0  0  0  0  0  0  0
    4.1425   -2.8070   24.8334 H   0  0  0  0  0  0  0  0  0  0  0  0
    4.2043    0.1754   25.0914 H   0  0  0  0  0  0  0  0  0  0  0  0
    5.0296   -0.9620   26.1202 H   0  0  0  0  0  0  0  0  0  0  0  0
    2.6342   -2.7294   26.7791 H   0  0  0  0  0  0  0  0  0  0  0  0
    3.6091   -1.9461   28.0148 H   0  0  0  0  0  0  0  0  0  0  0  0
    0.7198   -2.3701   27.9411 H   0  0  0  0  0  0  0  0  0  0  0  0
    1.7184   -1.8267   29.2772 H   0  0  0  0  0  0  0  0  0  0  0  0
    0.4880   -0.2315   27.1799 H   0  0  0  0  0  0  0  0  0  0  0  0
    1.4128    1.7235   28.1493 H   0  0  0  0  0  0  0  0  0  0  0  0
    2.2883    0.7028   29.2814 H   0  0  0  0  0  0  0  0  0  0  0  0
    2.9605    1.4250   26.5345 H   0  0  0  0  0  0  0  0  0  0  0  0
    3.9840    0.6685   27.7614 H   0  0  0  0  0  0  0  0  0  0  0  0
    7.2129    3.2921   16.1473 H   0  0  0  0  0  0  0  0  0  0  0  0
    9.1992    5.1940   16.2578 H   0  0  0  0  0  0  0  0  0  0  0  0
   12.3787    3.4124   17.1711 H   0  0  0  0  0  0  0  0  0  0  0  0
   11.6577    5.0396   16.9912 H   0  0  0  0  0  0  0  0  0  0  0  0
   12.1727    4.1220   15.5377 H   0  0  0  0  0  0  0  0  0  0  0  0
  1  2  1  0
  2  3  1  0
  3  4  1  0
  4  5  1  0
  5  6  2  0
  5  7  1  0
  7  8  2  0
  7  9  1  0
  9 10  1  0
 10 11  1  0
 11 12  1  0
 12 13  1  0
 13 14  1  0
 14 15  1  0
 15 16  1  0
 16 17  1  0
 17 18  1  0
  3 19  1  0
 19 20  1  0
 20 21  2  0
 21 22  1  0
 22 23  1  0
 22 24  1  0
 18 13  1  0
 24 19  2  0
  1 25  1  0
  1 26  1  0
  1 27  1  0
  2 28  1  0
  2 29  1  0
  3 30  1  0
  4 31  1  0
  9 32  1  0
 10 33  1  0
 10 34  1  0
 11 35  1  0
 11 36  1  0
 12 37  1  0
 12 38  1  0
 14 39  1  0
 14 40  1  0
 15 41  1  0
 15 42  1  0
 16 43  1  0
 17 44  1  0
 17 45  1  0
 18 46  1  0
 18 47  1  0
 20 48  1  0
 21 49  1  0
 23 50  1  0
 23 51  1  0
 23 52  1  0
M  END
>  <Energy>  (609) 
396.4998965025228

>  <compound_id>  (609) 
51128

>  <target_id>  (609) 
1

>  <reference_id>  (609) 
122

>  <inspiration_ids>  (609) 
[122, 44]

>  <energy_score>  (609) 
252.5075261435909

>  <distance_score>  (609) 
5.8960515294562565

>  <path>  (609) 
/opt/xchem-fragalysis-2/maxwin/BulkDock/SCRATCH/511025/C51128-P122/C51128-P122.minimised.mol

>  <scratch_subdir>  (609) 
/opt/xchem-fragalysis-2/maxwin/BulkDock/SCRATCH/511025/C51128-P122

>  <fragmenstein_runtime>  (609) 
11.787589073181152

>  <fragmenstein_outcome>  (609) 
too moved

>  <fragmenstein_mode>  (609) 
expansion

>  <fragmenstein_error>  (609) 


$$$$
C51128-P44
     RDKit          3D

 52 53  0  0  0  0  0  0  0  0999 V2000
    4.3056   -4.9367   16.1652 C   0  0  0  0  0  0  0  0  0  0  0  0
    5.4400   -5.8581   16.5648 C   0  0  0  0  0  0  0  0  0  0  0  0
    6.8347   -5.3201   17.1971 C   0  0  0  0  0  0  0  0  0  0  0  0
    6.5441   -4.9555   19.1454 N   0  0  0  0  0  0  0  0  0  0  0  0
    5.6999   -3.5449   20.0340 C   0  0  0  0  0  0  0  0  0  0  0  0
    5.1570   -2.7314   19.4201 O   0  0  0  0  0  0  0  0  0  0  0  0
    5.6945   -3.0364   22.0391 C   0  0  0  0  0  0  0  0  0  0  0  0
    6.4645   -3.7175   22.6276 O   0  0  0  0  0  0  0  0  0  0  0  0
    4.7695   -1.7956   23.0107 N   0  0  0  0  0  0  0  0  0  0  0  0
    4.7133   -1.5068   24.5041 C   0  0  0  0  0  0  0  0  0  0  0  0
    4.6291   -2.5891   25.5824 C   0  0  0  0  0  0  0  0  0  0  0  0
    4.3439   -2.0099   27.0129 C   0  0  0  0  0  0  0  0  0  0  0  0
    3.1268   -1.1776   27.1702 N   0  0  0  0  0  0  0  0  0  0  0  0
    2.3109   -1.5961   28.3337 C   0  0  0  0  0  0  0  0  0  0  0  0
    1.1625   -0.6187   28.7155 C   0  0  0  0  0  0  0  0  0  0  0  0
    0.9210    0.4384   27.7251 N   0  0  0  0  0  0  0  0  0  0  0  0
    2.1804    1.1648   27.4878 C   0  0  0  0  0  0  0  0  0  0  0  0
    3.4359    0.2639   27.3045 C   0  0  0  0  0  0  0  0  0  0  0  0
    8.0013   -4.1296   15.8177 C   0  0  0  0  0  0  0  0  0  0  0  0
    7.3935   -2.7039   15.0460 C   0  0  0  0  0  0  0  0  0  0  0  0
    8.3905   -1.7967   14.8401 C   0  0  0  0  0  0  0  0  0  0  0  0
    9.4981   -2.5443   14.9398 N   0  0  0  0  0  0  0  0  0  0  0  0
   10.8659   -2.1170   14.7484 C   0  0  0  0  0  0  0  0  0  0  0  0
    9.2626   -3.8562   15.1483 N   0  0  0  0  0  0  0  0  0  0  0  0
    3.8502   -4.4437   17.0266 H   0  0  0  0  0  0  0  0  0  0  0  0
    4.6388   -4.1904   15.4455 H   0  0  0  0  0  0  0  0  0  0  0  0
    3.5127   -5.5189   15.6825 H   0  0  0  0  0  0  0  0  0  0  0  0
    5.7029   -6.4465   15.6780 H   0  0  0  0  0  0  0  0  0  0  0  0
    5.0199   -6.5656   17.2923 H   0  0  0  0  0  0  0  0  0  0  0  0
    7.1759   -6.2995   17.3066 H   0  0  0  0  0  0  0  0  0  0  0  0
    7.0391   -5.5287   19.8311 H   0  0  0  0  0  0  0  0  0  0  0  0
    4.2344   -1.2431   22.3854 H   0  0  0  0  0  0  0  0  0  0  0  0
    5.4500   -0.7693   24.8203 H   0  0  0  0  0  0  0  0  0  0  0  0
    3.8236   -0.8881   24.5964 H   0  0  0  0  0  0  0  0  0  0  0  0
    3.8802   -3.3490   25.3442 H   0  0  0  0  0  0  0  0  0  0  0  0
    5.5834   -3.1248   25.6205 H   0  0  0  0  0  0  0  0  0  0  0  0
    5.2325   -1.4589   27.3483 H   0  0  0  0  0  0  0  0  0  0  0  0
    4.2840   -2.8843   27.6753 H   0  0  0  0  0  0  0  0  0  0  0  0
    1.8709   -2.5745   28.1061 H   0  0  0  0  0  0  0  0  0  0  0  0
    2.9489   -1.7245   29.2183 H   0  0  0  0  0  0  0  0  0  0  0  0
    0.2362   -1.1877   28.8543 H   0  0  0  0  0  0  0  0  0  0  0  0
    1.3887   -0.1524   29.6826 H   0  0  0  0  0  0  0  0  0  0  0  0
    0.6943   -0.0554   26.8590 H   0  0  0  0  0  0  0  0  0  0  0  0
    2.0490    1.7876   26.5959 H   0  0  0  0  0  0  0  0  0  0  0  0
    2.3545    1.8565   28.3211 H   0  0  0  0  0  0  0  0  0  0  0  0
    3.9807    0.6124   26.4201 H   0  0  0  0  0  0  0  0  0  0  0  0
    4.0958    0.4179   28.1691 H   0  0  0  0  0  0  0  0  0  0  0  0
    6.3414   -2.5555   14.8265 H   0  0  0  0  0  0  0  0  0  0  0  0
    8.4113   -0.7726   14.5067 H   0  0  0  0  0  0  0  0  0  0  0  0
   11.4224   -2.3425   15.6620 H   0  0  0  0  0  0  0  0  0  0  0  0
   10.8901   -1.0408   14.5608 H   0  0  0  0  0  0  0  0  0  0  0  0
   11.2900   -2.6620   13.9014 H   0  0  0  0  0  0  0  0  0  0  0  0
  1  2  1  0
  2  3  1  0
  3  4  1  0
  4  5  1  0
  5  6  2  0
  5  7  1  0
  7  8  2  0
  7  9  1  0
  9 10  1  0
 10 11  1  0
 11 12  1  0
 12 13  1  0
 13 14  1  0
 14 15  1  0
 15 16  1  0
 16 17  1  0
 17 18  1  0
  3 19  1  0
 19 20  1  0
 20 21  2  0
 21 22  1  0
 22 23  1  0
 22 24  1  0
 18 13  1  0
 24 19  2  0
  1 25  1  0
  1 26  1  0
  1 27  1  0
  2 28  1  0
  2 29  1  0
  3 30  1  0
  4 31  1  0
  9 32  1  0
 10 33  1  0
 10 34  1  0
 11 35  1  0
 11 36  1  0
 12 37  1  0
 12 38  1  0
 14 39  1  0
 14 40  1  0
 15 41  1  0
 15 42  1  0
 16 43  1  0
 17 44  1  0
 17 45  1  0
 18 46  1  0
 18 47  1  0
 20 48  1  0
 21 49  1  0
 23 50  1  0
 23 51  1  0
 23 52  1  0
M  END
>  <Energy>  (610) 
657.43115856524787

>  <compound_id>  (610) 
51128

>  <target_id>  (610) 
1

>  <reference_id>  (610) 
44

>  <inspiration_ids>  (610) 
[122, 44]

>  <energy_score>  (610) 
513.4387882063163

>  <distance_score>  (610) 
5.303511186679786

>  <path>  (610) 
/opt/xchem-fragalysis-2/maxwin/BulkDock/SCRATCH/511025/C51128-P44/C51128-P44.minimised.mol

>  <scratch_subdir>  (610) 
/opt/xchem-fragalysis-2/maxwin/BulkDock/SCRATCH/511025/C51128-P44

>  <fragmenstein_runtime>  (610) 
14.771346807479858

>  <fragmenstein_outcome>  (610) 
too moved

>  <fragmenstein_mode>  (610) 
expansion

>  <fragmenstein_error>  (610) 


$$$$
C58698-P122
     RDKit          3D

 39 40  0  0  0  0  0  0  0  0999 V2000
    7.5048    1.4359   20.6320 C   0  0  0  0  0  0  0  0  0  0  0  0
    7.0501    0.1247   20.0073 C   0  0  0  0  0  0  0  0  0  0  0  0
    5.6271    0.0627   21.3612 N   0  0  0  0  0  0  0  0  0  0  0  0
    4.1026    0.8799   21.7495 C   0  0  0  0  0  0  0  0  0  0  0  0
    2.8138    2.0387   22.7014 C   0  0  0  0  0  0  0  0  0  0  0  0
    2.6645    1.8363   23.8930 O   0  0  0  0  0  0  0  0  0  0  0  0
    2.0645    2.9845   21.8215 N   0  0  0  0  0  0  0  0  0  0  0  0
    0.8626    3.8593   22.1025 C   0  0  0  0  0  0  0  0  0  0  0  0
    0.2574    4.6369   20.9269 C   0  0  0  0  0  0  0  0  0  0  0  0
    1.1232    5.7495   20.5633 N   0  0  0  0  0  0  0  0  0  0  0  0
    2.4914    5.2389   20.5302 C   0  0  0  0  0  0  0  0  0  0  0  0
    2.7811    4.3984   21.7867 C   0  0  0  0  0  0  0  0  0  0  0  0
    7.7424    0.4043   18.2053 C   0  0  0  0  0  0  0  0  0  0  0  0
    8.1443    1.7961   17.5559 C   0  0  0  0  0  0  0  0  0  0  0  0
    8.8695    1.5793   16.4168 C   0  0  0  0  0  0  0  0  0  0  0  0
    8.8647    0.2415   16.3051 N   0  0  0  0  0  0  0  0  0  0  0  0
    9.3519   -0.5265   15.1869 C   0  0  0  0  0  0  0  0  0  0  0  0
    8.5437   -0.3931   17.4460 N   0  0  0  0  0  0  0  0  0  0  0  0
    8.2921    1.4140   21.3654 H   0  0  0  0  0  0  0  0  0  0  0  0
    7.3909    1.9607   19.7040 H   0  0  0  0  0  0  0  0  0  0  0  0
    6.9482    2.2166   21.1502 H   0  0  0  0  0  0  0  0  0  0  0  0
    6.2650    0.2175   19.3041 H   0  0  0  0  0  0  0  0  0  0  0  0
    5.5276   -0.9406   21.5342 H   0  0  0  0  0  0  0  0  0  0  0  0
    4.5437    0.5760   22.6337 H   0  0  0  0  0  0  0  0  0  0  0  0
    3.2585    0.4714   21.3527 H   0  0  0  0  0  0  0  0  0  0  0  0
    0.8879    4.3980   23.0649 H   0  0  0  0  0  0  0  0  0  0  0  0
    0.0955    3.1068   22.3369 H   0  0  0  0  0  0  0  0  0  0  0  0
    0.1320    3.9711   20.0657 H   0  0  0  0  0  0  0  0  0  0  0  0
   -0.7298    5.0231   21.2002 H   0  0  0  0  0  0  0  0  0  0  0  0
    0.8594    6.1248   19.6537 H   0  0  0  0  0  0  0  0  0  0  0  0
    2.6562    4.6364   19.6289 H   0  0  0  0  0  0  0  0  0  0  0  0
    3.1794    6.0899   20.4897 H   0  0  0  0  0  0  0  0  0  0  0  0
    3.8648    4.3377   21.8716 H   0  0  0  0  0  0  0  0  0  0  0  0
    2.6284    4.9708   22.7216 H   0  0  0  0  0  0  0  0  0  0  0  0
    7.8065    2.7657   17.8932 H   0  0  0  0  0  0  0  0  0  0  0  0
    9.2756    2.2467   15.6719 H   0  0  0  0  0  0  0  0  0  0  0  0
   10.2831   -1.0168   15.4809 H   0  0  0  0  0  0  0  0  0  0  0  0
    9.5281    0.1447   14.3431 H   0  0  0  0  0  0  0  0  0  0  0  0
    8.5876   -1.2664   14.9370 H   0  0  0  0  0  0  0  0  0  0  0  0
  1  2  1  0
  2  3  1  0
  3  4  1  0
  4  5  1  0
  5  6  2  0
  5  7  1  0
  7  8  1  0
  8  9  1  0
  9 10  1  0
 10 11  1  0
 11 12  1  0
  2 13  1  0
 13 14  1  0
 14 15  2  0
 15 16  1  0
 16 17  1  0
 16 18  1  0
 12  7  1  0
 18 13  2  0
  1 19  1  0
  1 20  1  0
  1 21  1  0
  2 22  1  0
  3 23  1  0
  4 24  1  0
  4 25  1  0
  8 26  1  0
  8 27  1  0
  9 28  1  0
  9 29  1  0
 10 30  1  0
 11 31  1  0
 11 32  1  0
 12 33  1  0
 12 34  1  0
 14 35  1  0
 15 36  1  0
 17 37  1  0
 17 38  1  0
 17 39  1  0
M  END
>  <Energy>  (611) 
617.7642295631498

>  <compound_id>  (611) 
58698

>  <target_id>  (611) 
1

>  <reference_id>  (611) 
122

>  <inspiration_ids>  (611) 
[122, 44]

>  <energy_score>  (611) 
464.7662884561122

>  <distance_score>  (611) 
6.919532947282058

>  <path>  (611) 
/opt/xchem-fragalysis-2/maxwin/BulkDock/SCRATCH/511025/C58698-P122/C58698-P122.minimised.mol

>  <scratch_subdir>  (611) 
/opt/xchem-fragalysis-2/maxwin/BulkDock/SCRATCH/511025/C58698-P122

>  <fragmenstein_runtime>  (611) 
8.774837493896484

>  <fragmenstein_outcome>  (611) 
too moved

>  <fragmenstein_mode>  (611) 
expansion

>  <fragmenstein_error>  (611) 


$$$$
C58698-P44
     RDKit          3D

 39 40  0  0  0  0  0  0  0  0999 V2000
    7.3117   -0.5721   19.7517 C   0  0  0  0  0  0  0  0  0  0  0  0
    6.5003    0.5651   20.0891 C   0  0  0  0  0  0  0  0  0  0  0  0
    4.7853    0.9481   21.1883 N   0  0  0  0  0  0  0  0  0  0  0  0
    4.3465    1.6750   22.9028 C   0  0  0  0  0  0  0  0  0  0  0  0
    4.4036    0.9574   24.3514 C   0  0  0  0  0  0  0  0  0  0  0  0
    5.1115    0.0216   24.5921 O   0  0  0  0  0  0  0  0  0  0  0  0
    3.4623    1.6665   25.1984 N   0  0  0  0  0  0  0  0  0  0  0  0
    2.9968    1.3796   26.6107 C   0  0  0  0  0  0  0  0  0  0  0  0
    1.7879    2.2143   27.0889 C   0  0  0  0  0  0  0  0  0  0  0  0
    1.8392    3.5831   26.5741 N   0  0  0  0  0  0  0  0  0  0  0  0
    3.2490    3.9634   26.4754 C   0  0  0  0  0  0  0  0  0  0  0  0
    4.1585    2.8328   25.9015 C   0  0  0  0  0  0  0  0  0  0  0  0
    7.6409    1.7808   19.2513 C   0  0  0  0  0  0  0  0  0  0  0  0
    7.6729    3.1947   19.0650 C   0  0  0  0  0  0  0  0  0  0  0  0
    8.5556    3.4622   18.0447 C   0  0  0  0  0  0  0  0  0  0  0  0
    8.9075    2.2508   17.5623 N   0  0  0  0  0  0  0  0  0  0  0  0
    9.4882    1.9864   16.2697 C   0  0  0  0  0  0  0  0  0  0  0  0
    8.5196    1.2408   18.3438 N   0  0  0  0  0  0  0  0  0  0  0  0
    7.0883   -0.6967   18.7188 H   0  0  0  0  0  0  0  0  0  0  0  0
    6.9444   -1.2774   20.4620 H   0  0  0  0  0  0  0  0  0  0  0  0
    8.3678   -0.3478   19.7498 H   0  0  0  0  0  0  0  0  0  0  0  0
    6.0426    0.5507   19.0748 H   0  0  0  0  0  0  0  0  0  0  0  0
    4.4765    0.0178   21.5217 H   0  0  0  0  0  0  0  0  0  0  0  0
    3.2914    1.9834   22.7267 H   0  0  0  0  0  0  0  0  0  0  0  0
    4.7143    2.7225   23.0807 H   0  0  0  0  0  0  0  0  0  0  0  0
    3.7869    1.2442   27.3698 H   0  0  0  0  0  0  0  0  0  0  0  0
    2.6287    0.3451   26.5349 H   0  0  0  0  0  0  0  0  0  0  0  0
    0.8502    1.7525   26.7604 H   0  0  0  0  0  0  0  0  0  0  0  0
    1.7642    2.2230   28.1846 H   0  0  0  0  0  0  0  0  0  0  0  0
    1.4668    3.5606   25.6218 H   0  0  0  0  0  0  0  0  0  0  0  0
    3.3265    4.8550   25.8421 H   0  0  0  0  0  0  0  0  0  0  0  0
    3.6258    4.2574   27.4625 H   0  0  0  0  0  0  0  0  0  0  0  0
    4.9706    2.5222   26.5822 H   0  0  0  0  0  0  0  0  0  0  0  0
    4.7372    3.3294   25.1097 H   0  0  0  0  0  0  0  0  0  0  0  0
    7.0509    3.9586   19.4941 H   0  0  0  0  0  0  0  0  0  0  0  0
    8.8317    4.3840   17.5551 H   0  0  0  0  0  0  0  0  0  0  0  0
    8.6794    1.9677   15.5345 H   0  0  0  0  0  0  0  0  0  0  0  0
    9.9936    1.0193   16.2873 H   0  0  0  0  0  0  0  0  0  0  0  0
   10.1994    2.7789   16.0258 H   0  0  0  0  0  0  0  0  0  0  0  0
  1  2  1  0
  2  3  1  0
  3  4  1  0
  4  5  1  0
  5  6  2  0
  5  7  1  0
  7  8  1  0
  8  9  1  0
  9 10  1  0
 10 11  1  0
 11 12  1  0
  2 13  1  0
 13 14  1  0
 14 15  2  0
 15 16  1  0
 16 17  1  0
 16 18  1  0
 12  7  1  0
 18 13  2  0
  1 19  1  0
  1 20  1  0
  1 21  1  0
  2 22  1  0
  3 23  1  0
  4 24  1  0
  4 25  1  0
  8 26  1  0
  8 27  1  0
  9 28  1  0
  9 29  1  0
 10 30  1  0
 11 31  1  0
 11 32  1  0
 12 33  1  0
 12 34  1  0
 14 35  1  0
 15 36  1  0
 17 37  1  0
 17 38  1  0
 17 39  1  0
M  END
>  <Energy>  (612) 
493.08118188920736

>  <compound_id>  (612) 
58698

>  <target_id>  (612) 
1

>  <reference_id>  (612) 
44

>  <inspiration_ids>  (612) 
[122, 44]

>  <energy_score>  (612) 
340.0832407821712

>  <distance_score>  (612) 
6.407260122051815

>  <path>  (612) 
/opt/xchem-fragalysis-2/maxwin/BulkDock/SCRATCH/511025/C58698-P44/C58698-P44.minimised.mol

>  <scratch_subdir>  (612) 
/opt/xchem-fragalysis-2/maxwin/BulkDock/SCRATCH/511025/C58698-P44

>  <fragmenstein_runtime>  (612) 
9.190887212753296

>  <fragmenstein_outcome>  (612) 
too moved

>  <fragmenstein_mode>  (612) 
expansion

>  <fragmenstein_error>  (612) 


$$$$
C51157-P122
     RDKit          3D

 38 39  0  0  0  0  0  0  0  0999 V2000
    1.2239    1.6898   27.8563 C   0  0  0  0  0  0  0  0  0  0  0  0
    0.6205    3.0408   27.4252 C   0  0  0  0  0  0  0  0  0  0  0  0
    0.4964    3.9327   28.6728 C   0  0  0  0  0  0  0  0  0  0  0  0
   -0.7697    2.7275   26.8436 C   0  0  0  0  0  0  0  0  0  0  0  0
   -1.0355    2.3847   25.6991 O   0  0  0  0  0  0  0  0  0  0  0  0
   -1.7677    2.7997   27.7532 O   0  0  0  0  0  0  0  0  0  0  0  0
    1.4780    3.7297   26.4324 N   0  0  0  0  0  0  0  0  0  0  0  0
    1.0811    4.4959   25.3683 C   0  0  0  0  0  0  0  0  0  0  0  0
    2.2297    4.9520   24.7634 C   0  0  0  0  0  0  0  0  0  0  0  0
    3.2914    4.4764   25.5564 C   0  0  0  0  0  0  0  0  0  0  0  0
    4.6388    4.6459   25.3560 N   0  0  0  0  0  0  0  0  0  0  0  0
    5.3670    5.3140   24.2914 C   0  0  0  0  0  0  0  0  0  0  0  0
    4.9739    5.9564   23.3570 O   0  0  0  0  0  0  0  0  0  0  0  0
    6.8932    5.0795   24.4359 C   0  0  0  0  0  0  0  0  0  0  0  0
    7.6136    4.6883   23.1173 C   0  0  0  0  0  0  0  0  0  0  0  0
    8.4184    5.7779   22.3741 C   0  0  0  0  0  0  0  0  0  0  0  0
    9.7124    4.9779   22.5588 C   0  0  0  0  0  0  0  0  0  0  0  0
    8.9305    3.8764   23.2732 C   0  0  0  0  0  0  0  0  0  0  0  0
    2.8334    3.7574   26.5902 N   0  0  0  0  0  0  0  0  0  0  0  0
    0.5437    1.1424   28.5193 H   0  0  0  0  0  0  0  0  0  0  0  0
    1.4201    1.0506   26.9909 H   0  0  0  0  0  0  0  0  0  0  0  0
    2.1728    1.8205   28.3889 H   0  0  0  0  0  0  0  0  0  0  0  0
   -0.0408    3.4297   29.4843 H   0  0  0  0  0  0  0  0  0  0  0  0
   -0.0413    4.8604   28.4429 H   0  0  0  0  0  0  0  0  0  0  0  0
    1.4811    4.2148   29.0640 H   0  0  0  0  0  0  0  0  0  0  0  0
   -2.6139    2.6819   27.2648 H   0  0  0  0  0  0  0  0  0  0  0  0
    0.0420    4.6459   25.1092 H   0  0  0  0  0  0  0  0  0  0  0  0
    2.2940    5.5596   23.8711 H   0  0  0  0  0  0  0  0  0  0  0  0
    5.2972    4.2690   26.0208 H   0  0  0  0  0  0  0  0  0  0  0  0
    7.3266    5.9972   24.8509 H   0  0  0  0  0  0  0  0  0  0  0  0
    7.0756    4.2973   25.1790 H   0  0  0  0  0  0  0  0  0  0  0  0
    6.9137    4.1957   22.4310 H   0  0  0  0  0  0  0  0  0  0  0  0
    8.1202    5.9194   21.3303 H   0  0  0  0  0  0  0  0  0  0  0  0
    8.4317    6.7591   22.8601 H   0  0  0  0  0  0  0  0  0  0  0  0
   10.4510    5.4770   23.1952 H   0  0  0  0  0  0  0  0  0  0  0  0
   10.2063    4.6792   21.6323 H   0  0  0  0  0  0  0  0  0  0  0  0
    9.2537    3.7103   24.3065 H   0  0  0  0  0  0  0  0  0  0  0  0
    8.9390    2.9128   22.7565 H   0  0  0  0  0  0  0  0  0  0  0  0
  1  2  1  0
  2  3  1  0
  2  4  1  0
  4  5  2  0
  4  6  1  0
  2  7  1  0
  7  8  1  0
  8  9  2  0
  9 10  1  0
 10 11  1  0
 11 12  1  0
 12 13  2  0
 12 14  1  0
 14 15  1  0
 15 16  1  0
 16 17  1  0
 17 18  1  0
 10 19  2  0
 19  7  1  0
 18 15  1  0
  1 20  1  0
  1 21  1  0
  1 22  1  0
  3 23  1  0
  3 24  1  0
  3 25  1  0
  6 26  1  0
  8 27  1  0
  9 28  1  0
 11 29  1  0
 14 30  1  0
 14 31  1  0
 15 32  1  0
 16 33  1  0
 16 34  1  0
 17 35  1  0
 17 36  1  0
 18 37  1  0
 18 38  1  0
M  END
>  <Energy>  (613) 
-17.629590937186361

>  <compound_id>  (613) 
51157

>  <target_id>  (613) 
1

>  <reference_id>  (613) 
122

>  <inspiration_ids>  (613) 
[122, 44]

>  <energy_score>  (613) 
-59.37733955772575

>  <distance_score>  (613) 
7.818618944989907

>  <path>  (613) 
/opt/xchem-fragalysis-2/maxwin/BulkDock/SCRATCH/511025/C51157-P122/C51157-P122.minimised.mol

>  <scratch_subdir>  (613) 
/opt/xchem-fragalysis-2/maxwin/BulkDock/SCRATCH/511025/C51157-P122

>  <fragmenstein_runtime>  (613) 
29.025622606277466

>  <fragmenstein_outcome>  (613) 
too moved

>  <fragmenstein_mode>  (613) 
expansion

>  <fragmenstein_error>  (613) 


$$$$
C51157-P44
     RDKit          3D

 38 39  0  0  0  0  0  0  0  0999 V2000
    2.6617    0.9216   27.3708 C   0  0  0  0  0  0  0  0  0  0  0  0
    2.4414    2.4059   27.0087 C   0  0  0  0  0  0  0  0  0  0  0  0
    1.0200    2.7721   27.4978 C   0  0  0  0  0  0  0  0  0  0  0  0
    3.4837    3.2150   27.7937 C   0  0  0  0  0  0  0  0  0  0  0  0
    3.2566    3.7625   28.8667 O   0  0  0  0  0  0  0  0  0  0  0  0
    4.7322    3.2331   27.2574 O   0  0  0  0  0  0  0  0  0  0  0  0
    2.6204    2.6430   25.5647 N   0  0  0  0  0  0  0  0  0  0  0  0
    1.8038    3.3039   24.6900 C   0  0  0  0  0  0  0  0  0  0  0  0
    2.4253    3.2279   23.4622 C   0  0  0  0  0  0  0  0  0  0  0  0
    3.6087    2.4769   23.6623 C   0  0  0  0  0  0  0  0  0  0  0  0
    4.6235    2.3165   22.7245 N   0  0  0  0  0  0  0  0  0  0  0  0
    4.8698    1.0634   21.4429 C   0  0  0  0  0  0  0  0  0  0  0  0
    4.1031    0.2621   21.2795 O   0  0  0  0  0  0  0  0  0  0  0  0
    6.5948    0.6997   20.1865 C   0  0  0  0  0  0  0  0  0  0  0  0
    7.4382    1.6776   18.9173 C   0  0  0  0  0  0  0  0  0  0  0  0
    8.7069    2.6070   19.0359 C   0  0  0  0  0  0  0  0  0  0  0  0
    8.9952    2.1767   17.5672 C   0  0  0  0  0  0  0  0  0  0  0  0
    8.2820    0.8788   17.9254 C   0  0  0  0  0  0  0  0  0  0  0  0
    3.8034    2.2923   24.9798 N   0  0  0  0  0  0  0  0  0  0  0  0
    1.9157    0.2779   26.8955 H   0  0  0  0  0  0  0  0  0  0  0  0
    3.6508    0.5672   27.0581 H   0  0  0  0  0  0  0  0  0  0  0  0
    2.5968    0.7645   28.4542 H   0  0  0  0  0  0  0  0  0  0  0  0
    0.8914    2.5423   28.5622 H   0  0  0  0  0  0  0  0  0  0  0  0
    0.2513    2.2215   26.9433 H   0  0  0  0  0  0  0  0  0  0  0  0
    0.8227    3.8440   27.3791 H   0  0  0  0  0  0  0  0  0  0  0  0
    4.7691    2.7817   26.3725 H   0  0  0  0  0  0  0  0  0  0  0  0
    0.8736    3.7686   24.9871 H   0  0  0  0  0  0  0  0  0  0  0  0
    2.0817    3.6550   22.5301 H   0  0  0  0  0  0  0  0  0  0  0  0
    5.3952    3.0239   22.6682 H   0  0  0  0  0  0  0  0  0  0  0  0
    6.9891   -0.3156   20.0217 H   0  0  0  0  0  0  0  0  0  0  0  0
    7.1175    1.5614   20.6709 H   0  0  0  0  0  0  0  0  0  0  0  0
    6.7906    2.4312   18.4766 H   0  0  0  0  0  0  0  0  0  0  0  0
    9.4415    2.3504   19.7897 H   0  0  0  0  0  0  0  0  0  0  0  0
    8.4957    3.6763   19.1460 H   0  0  0  0  0  0  0  0  0  0  0  0
    8.4663    2.7803   16.8181 H   0  0  0  0  0  0  0  0  0  0  0  0
   10.0102    2.0407   17.2170 H   0  0  0  0  0  0  0  0  0  0  0  0
    8.8326    0.2077   18.5422 H   0  0  0  0  0  0  0  0  0  0  0  0
    7.8465    0.3475   17.0830 H   0  0  0  0  0  0  0  0  0  0  0  0
  1  2  1  0
  2  3  1  0
  2  4  1  0
  4  5  2  0
  4  6  1  0
  2  7  1  0
  7  8  1  0
  8  9  2  0
  9 10  1  0
 10 11  1  0
 11 12  1  0
 12 13  2  0
 12 14  1  0
 14 15  1  0
 15 16  1  0
 16 17  1  0
 17 18  1  0
 10 19  2  0
 19  7  1  0
 18 15  1  0
  1 20  1  0
  1 21  1  0
  1 22  1  0
  3 23  1  0
  3 24  1  0
  3 25  1  0
  6 26  1  0
  8 27  1  0
  9 28  1  0
 11 29  1  0
 14 30  1  0
 14 31  1  0
 15 32  1  0
 16 33  1  0
 16 34  1  0
 17 35  1  0
 17 36  1  0
 18 37  1  0
 18 38  1  0
M  END
>  <Energy>  (614) 
272.94148291300218

>  <compound_id>  (614) 
51157

>  <target_id>  (614) 
1

>  <reference_id>  (614) 
44

>  <inspiration_ids>  (614) 
[122, 44]

>  <energy_score>  (614) 
231.1937342924699

>  <distance_score>  (614) 
6.192248593947276

>  <path>  (614) 
/opt/xchem-fragalysis-2/maxwin/BulkDock/SCRATCH/511025/C51157-P44/C51157-P44.minimised.mol

>  <scratch_subdir>  (614) 
/opt/xchem-fragalysis-2/maxwin/BulkDock/SCRATCH/511025/C51157-P44

>  <fragmenstein_runtime>  (614) 
28.05115556716919

>  <fragmenstein_outcome>  (614) 
too moved

>  <fragmenstein_mode>  (614) 
expansion

>  <fragmenstein_error>  (614) 


$$$$
C51158-P122
     RDKit          3D

 42 43  0  0  0  0  0  0  0  0999 V2000
    9.4709    2.0160   15.4241 C   0  0  0  0  0  0  0  0  0  0  0  0
    9.4037    0.5922   16.0494 C   0  0  0  0  0  0  0  0  0  0  0  0
    8.8004   -0.4766   15.1222 C   0  0  0  0  0  0  0  0  0  0  0  0
   10.9202    0.2770   16.1612 C   0  0  0  0  0  0  0  0  0  0  0  0
   11.8019    1.1342   16.1489 O   0  0  0  0  0  0  0  0  0  0  0  0
   11.3245   -1.0074   16.2677 O   0  0  0  0  0  0  0  0  0  0  0  0
    8.5433    0.7127   17.2991 N   0  0  0  0  0  0  0  0  0  0  0  0
    8.0848    1.8557   17.8777 C   0  0  0  0  0  0  0  0  0  0  0  0
    7.4101    1.4232   19.0765 C   0  0  0  0  0  0  0  0  0  0  0  0
    7.3589   -0.0212   19.2324 C   0  0  0  0  0  0  0  0  0  0  0  0
    6.8845   -0.9187   20.5188 N   0  0  0  0  0  0  0  0  0  0  0  0
    5.6041   -0.6327   21.7407 C   0  0  0  0  0  0  0  0  0  0  0  0
    4.9462    0.3785   21.8133 O   0  0  0  0  0  0  0  0  0  0  0  0
    5.1640   -1.8289   23.2557 C   0  0  0  0  0  0  0  0  0  0  0  0
    4.6901   -1.2082   25.0212 C   0  0  0  0  0  0  0  0  0  0  0  0
    3.4373   -1.9028   25.5314 C   0  0  0  0  0  0  0  0  0  0  0  0
    2.9057   -1.5433   26.9321 C   0  0  0  0  0  0  0  0  0  0  0  0
    3.2328    0.1748   27.4539 S   0  0  0  0  0  0  0  0  0  0  0  0
    5.0315    0.2331   27.1423 C   0  0  0  0  0  0  0  0  0  0  0  0
    5.5395   -0.9845   26.3480 C   0  0  0  0  0  0  0  0  0  0  0  0
    8.1849   -0.3603   18.1028 N   0  0  0  0  0  0  0  0  0  0  0  0
    8.4984    2.5086   15.3843 H   0  0  0  0  0  0  0  0  0  0  0  0
   10.0803    2.7001   16.0324 H   0  0  0  0  0  0  0  0  0  0  0  0
    9.9354    2.0000   14.4307 H   0  0  0  0  0  0  0  0  0  0  0  0
    9.3966   -1.3804   15.0137 H   0  0  0  0  0  0  0  0  0  0  0  0
    7.8382   -0.8615   15.4727 H   0  0  0  0  0  0  0  0  0  0  0  0
    8.7034   -0.0927   14.1062 H   0  0  0  0  0  0  0  0  0  0  0  0
   10.6839   -1.7351   16.2234 H   0  0  0  0  0  0  0  0  0  0  0  0
    8.2493    2.8566   17.5045 H   0  0  0  0  0  0  0  0  0  0  0  0
    7.1401    2.0955   19.8380 H   0  0  0  0  0  0  0  0  0  0  0  0
    7.2033   -1.8148   20.6062 H   0  0  0  0  0  0  0  0  0  0  0  0
    4.2511   -1.4297   22.9795 H   0  0  0  0  0  0  0  0  0  0  0  0
    4.3475   -2.5362   23.2232 H   0  0  0  0  0  0  0  0  0  0  0  0
    4.3120   -0.1969   24.8300 H   0  0  0  0  0  0  0  0  0  0  0  0
    3.5112   -2.9882   25.4355 H   0  0  0  0  0  0  0  0  0  0  0  0
    2.7321   -1.5393   24.8157 H   0  0  0  0  0  0  0  0  0  0  0  0
    1.8281   -1.7141   26.9944 H   0  0  0  0  0  0  0  0  0  0  0  0
    3.3503   -2.2082   27.6813 H   0  0  0  0  0  0  0  0  0  0  0  0
    5.5388    0.2728   28.1121 H   0  0  0  0  0  0  0  0  0  0  0  0
    5.2663    1.1640   26.6202 H   0  0  0  0  0  0  0  0  0  0  0  0
    6.6250   -0.9635   26.2394 H   0  0  0  0  0  0  0  0  0  0  0  0
    5.4108   -1.8099   27.0565 H   0  0  0  0  0  0  0  0  0  0  0  0
  1  2  1  0
  2  3  1  0
  2  4  1  0
  4  5  2  0
  4  6  1  0
  2  7  1  0
  7  8  1  0
  8  9  2  0
  9 10  1  0
 10 11  1  0
 11 12  1  0
 12 13  2  0
 12 14  1  0
 14 15  1  0
 15 16  1  0
 16 17  1  0
 17 18  1  0
 18 19  1  0
 19 20  1  0
 10 21  2  0
 21  7  1  0
 20 15  1  0
  1 22  1  0
  1 23  1  0
  1 24  1  0
  3 25  1  0
  3 26  1  0
  3 27  1  0
  6 28  1  0
  8 29  1  0
  9 30  1  0
 11 31  1  0
 14 32  1  0
 14 33  1  0
 15 34  1  0
 16 35  1  0
 16 36  1  0
 17 37  1  0
 17 38  1  0
 19 39  1  0
 19 40  1  0
 20 41  1  0
 20 42  1  0
M  END
>  <Energy>  (615) 
285.09086949962256

>  <compound_id>  (615) 
51158

>  <target_id>  (615) 
1

>  <reference_id>  (615) 
122

>  <inspiration_ids>  (615) 
[122, 44]

>  <energy_score>  (615) 
267.02395648283306

>  <distance_score>  (615) 
7.070311256957187

>  <path>  (615) 
/opt/xchem-fragalysis-2/maxwin/BulkDock/SCRATCH/511025/C51158-P122/C51158-P122.minimised.mol

>  <scratch_subdir>  (615) 
/opt/xchem-fragalysis-2/maxwin/BulkDock/SCRATCH/511025/C51158-P122

>  <fragmenstein_runtime>  (615) 
10.9172523021698

>  <fragmenstein_outcome>  (615) 
too moved

>  <fragmenstein_mode>  (615) 
expansion

>  <fragmenstein_error>  (615) 


$$$$
C51158-P44
     RDKit          3D

 42 43  0  0  0  0  0  0  0  0999 V2000
    8.0535   -0.7442   14.9519 C   0  0  0  0  0  0  0  0  0  0  0  0
    9.2866    0.1286   15.2438 C   0  0  0  0  0  0  0  0  0  0  0  0
   10.5650   -0.7271   15.2191 C   0  0  0  0  0  0  0  0  0  0  0  0
    9.3262    1.2116   14.1592 C   0  0  0  0  0  0  0  0  0  0  0  0
    8.3821    1.8597   13.7256 O   0  0  0  0  0  0  0  0  0  0  0  0
   10.5641    1.5157   13.7041 O   0  0  0  0  0  0  0  0  0  0  0  0
    9.1485    0.7554   16.5762 N   0  0  0  0  0  0  0  0  0  0  0  0
    9.4684    2.0261   16.9260 C   0  0  0  0  0  0  0  0  0  0  0  0
    8.9472    2.1995   18.1830 C   0  0  0  0  0  0  0  0  0  0  0  0
    8.2558    0.9515   18.5312 C   0  0  0  0  0  0  0  0  0  0  0  0
    7.0036    0.9698   19.3396 N   0  0  0  0  0  0  0  0  0  0  0  0
    6.4184    0.3974   20.1075 C   0  0  0  0  0  0  0  0  0  0  0  0
    7.2879   -0.9587   20.2415 O   0  0  0  0  0  0  0  0  0  0  0  0
    4.6869    0.8235   21.3780 C   0  0  0  0  0  0  0  0  0  0  0  0
    4.0744    1.9678   22.9555 C   0  0  0  0  0  0  0  0  0  0  0  0
    2.8513    2.9813   22.7992 C   0  0  0  0  0  0  0  0  0  0  0  0
    2.0650    3.3600   24.0549 C   0  0  0  0  0  0  0  0  0  0  0  0
    3.0814    3.8410   25.4749 S   0  0  0  0  0  0  0  0  0  0  0  0
    4.2803    2.4789   25.5264 C   0  0  0  0  0  0  0  0  0  0  0  0
    4.1231    1.3937   24.4603 C   0  0  0  0  0  0  0  0  0  0  0  0
    8.6829    0.0471   17.6423 N   0  0  0  0  0  0  0  0  0  0  0  0
    7.1772   -0.3524   15.4702 H   0  0  0  0  0  0  0  0  0  0  0  0
    7.7830   -0.7699   13.8939 H   0  0  0  0  0  0  0  0  0  0  0  0
    8.1982   -1.7776   15.2774 H   0  0  0  0  0  0  0  0  0  0  0  0
   11.4588   -0.1191   15.3983 H   0  0  0  0  0  0  0  0  0  0  0  0
   10.5455   -1.5066   15.9861 H   0  0  0  0  0  0  0  0  0  0  0  0
   10.7158   -1.2210   14.2573 H   0  0  0  0  0  0  0  0  0  0  0  0
   10.3880    2.2049   13.0310 H   0  0  0  0  0  0  0  0  0  0  0  0
    9.9621    2.7236   16.2640 H   0  0  0  0  0  0  0  0  0  0  0  0
    8.8915    3.1432   18.7105 H   0  0  0  0  0  0  0  0  0  0  0  0
    7.2302    1.7734   18.7868 H   0  0  0  0  0  0  0  0  0  0  0  0
    4.3885   -0.1960   21.4743 H   0  0  0  0  0  0  0  0  0  0  0  0
    4.9105    0.4268   22.4837 H   0  0  0  0  0  0  0  0  0  0  0  0
    4.8150    2.7840   23.0926 H   0  0  0  0  0  0  0  0  0  0  0  0
    2.2022    2.7018   21.9698 H   0  0  0  0  0  0  0  0  0  0  0  0
    3.2660    3.9458   22.4584 H   0  0  0  0  0  0  0  0  0  0  0  0
    1.4194    4.2133   23.8174 H   0  0  0  0  0  0  0  0  0  0  0  0
    1.3949    2.5747   24.3847 H   0  0  0  0  0  0  0  0  0  0  0  0
    4.2210    2.0207   26.5195 H   0  0  0  0  0  0  0  0  0  0  0  0
    5.2784    2.9242   25.4500 H   0  0  0  0  0  0  0  0  0  0  0  0
    4.9508    0.6856   24.5819 H   0  0  0  0  0  0  0  0  0  0  0  0
    3.2300    0.8326   24.7229 H   0  0  0  0  0  0  0  0  0  0  0  0
  1  2  1  0
  2  3  1  0
  2  4  1  0
  4  5  2  0
  4  6  1  0
  2  7  1  0
  7  8  1  0
  8  9  2  0
  9 10  1  0
 10 11  1  0
 11 12  1  0
 12 13  2  0
 12 14  1  0
 14 15  1  0
 15 16  1  0
 16 17  1  0
 17 18  1  0
 18 19  1  0
 19 20  1  0
 10 21  2  0
 21  7  1  0
 20 15  1  0
  1 22  1  0
  1 23  1  0
  1 24  1  0
  3 25  1  0
  3 26  1  0
  3 27  1  0
  6 28  1  0
  8 29  1  0
  9 30  1  0
 11 31  1  0
 14 32  1  0
 14 33  1  0
 15 34  1  0
 16 35  1  0
 16 36  1  0
 17 37  1  0
 17 38  1  0
 19 39  1  0
 19 40  1  0
 20 41  1  0
 20 42  1  0
M  END
>  <Energy>  (616) 
488.2932797167615

>  <compound_id>  (616) 
51158

>  <target_id>  (616) 
1

>  <reference_id>  (616) 
44

>  <inspiration_ids>  (616) 
[122, 44]

>  <energy_score>  (616) 
470.226366699971

>  <distance_score>  (616) 
6.382157153019993

>  <path>  (616) 
/opt/xchem-fragalysis-2/maxwin/BulkDock/SCRATCH/511025/C51158-P44/C51158-P44.minimised.mol

>  <scratch_subdir>  (616) 
/opt/xchem-fragalysis-2/maxwin/BulkDock/SCRATCH/511025/C51158-P44

>  <fragmenstein_runtime>  (616) 
8.107635974884033

>  <fragmenstein_outcome>  (616) 
too moved

>  <fragmenstein_mode>  (616) 
expansion

>  <fragmenstein_error>  (616) 


$$$$
C51159-P122
     RDKit          3D

 39 40  0  0  0  0  0  0  0  0999 V2000
   16.9750    2.1920    7.2616 C   0  0  0  0  0  0  0  0  0  0  0  0
   16.8937    1.0952    8.0174 C   0  0  0  0  0  0  0  0  0  0  0  0
   17.4226    0.7416    9.3935 C   0  0  0  0  0  0  0  0  0  0  0  0
   16.3113   -0.3436    9.3638 C   0  0  0  0  0  0  0  0  0  0  0  0
   16.6795   -1.7076    9.9317 C   0  0  0  0  0  0  0  0  0  0  0  0
   16.8792   -1.6794   11.4407 C   0  0  0  0  0  0  0  0  0  0  0  0
   17.9304   -1.5955   11.9422 O   0  0  0  0  0  0  0  0  0  0  0  0
   15.4658   -1.7506   12.0752 N   0  0  0  0  0  0  0  0  0  0  0  0
   15.0875   -1.8242   13.3734 C   0  0  0  0  0  0  0  0  0  0  0  0
   15.8919   -1.7819   14.5239 C   0  0  0  0  0  0  0  0  0  0  0  0
   15.0318   -1.9619   15.5778 C   0  0  0  0  0  0  0  0  0  0  0  0
   13.7945   -2.1041   15.0226 N   0  0  0  0  0  0  0  0  0  0  0  0
   12.5125   -2.1714   15.7188 C   0  0  0  0  0  0  0  0  0  0  0  0
   11.3649   -2.4573   14.7473 C   0  0  0  0  0  0  0  0  0  0  0  0
   12.2613   -0.7682   16.2849 C   0  0  0  0  0  0  0  0  0  0  0  0
   12.6251   -3.2176   16.8268 C   0  0  0  0  0  0  0  0  0  0  0  0
   13.3343   -3.0719   17.8166 O   0  0  0  0  0  0  0  0  0  0  0  0
   11.9075   -4.3479   16.6925 O   0  0  0  0  0  0  0  0  0  0  0  0
   13.8005   -1.9702   13.6812 N   0  0  0  0  0  0  0  0  0  0  0  0
   16.2529   -0.2616    7.8148 C   0  0  0  0  0  0  0  0  0  0  0  0
   17.5067    3.0676    7.6183 H   0  0  0  0  0  0  0  0  0  0  0  0
   16.5177    2.2219    6.2790 H   0  0  0  0  0  0  0  0  0  0  0  0
   17.3001    1.4871   10.1848 H   0  0  0  0  0  0  0  0  0  0  0  0
   18.4501    0.3628    9.4172 H   0  0  0  0  0  0  0  0  0  0  0  0
   15.3755    0.0201    9.8180 H   0  0  0  0  0  0  0  0  0  0  0  0
   15.9129   -2.4492    9.6773 H   0  0  0  0  0  0  0  0  0  0  0  0
   17.6112   -2.0767    9.4844 H   0  0  0  0  0  0  0  0  0  0  0  0
   14.7788   -1.9013   11.3522 H   0  0  0  0  0  0  0  0  0  0  0  0
   16.9650   -1.6578   14.5750 H   0  0  0  0  0  0  0  0  0  0  0  0
   15.2114   -1.9910   16.6445 H   0  0  0  0  0  0  0  0  0  0  0  0
   11.2861   -1.6283   14.0388 H   0  0  0  0  0  0  0  0  0  0  0  0
   10.4047   -2.5393   15.2622 H   0  0  0  0  0  0  0  0  0  0  0  0
   11.5191   -3.3729   14.1675 H   0  0  0  0  0  0  0  0  0  0  0  0
   12.4725    0.0131   15.5430 H   0  0  0  0  0  0  0  0  0  0  0  0
   12.8881   -0.5567   17.1570 H   0  0  0  0  0  0  0  0  0  0  0  0
   11.2128   -0.6493   16.5584 H   0  0  0  0  0  0  0  0  0  0  0  0
   11.2999   -4.4978   15.9415 H   0  0  0  0  0  0  0  0  0  0  0  0
   15.2394   -0.2812    7.4029 H   0  0  0  0  0  0  0  0  0  0  0  0
   16.8669   -0.9950    7.2809 H   0  0  0  0  0  0  0  0  0  0  0  0
  1  2  2  0
  2  3  1  0
  3  4  1  0
  4  5  1  0
  5  6  1  0
  6  7  2  0
  6  8  1  0
  8  9  1  0
  9 10  1  0
 10 11  2  0
 11 12  1  0
 12 13  1  0
 13 14  1  0
 13 15  1  0
 13 16  1  0
 16 17  2  0
 16 18  1  0
 12 19  1  0
  4 20  1  0
 20  2  1  0
 19  9  2  0
  1 21  1  0
  1 22  1  0
  3 23  1  0
  3 24  1  0
  4 25  1  0
  5 26  1  0
  5 27  1  0
  8 28  1  0
 10 29  1  0
 11 30  1  0
 14 31  1  0
 14 32  1  0
 14 33  1  0
 15 34  1  0
 15 35  1  0
 15 36  1  0
 18 37  1  0
 20 38  1  0
 20 39  1  0
M  END
>  <Energy>  (617) 
-4.5688104560876974

>  <compound_id>  (617) 
51159

>  <target_id>  (617) 
1

>  <reference_id>  (617) 
122

>  <inspiration_ids>  (617) 
[122, 44]

>  <energy_score>  (617) 
-24.091681619593103

>  <distance_score>  (617) 
3.0852281483938864

>  <path>  (617) 
/opt/xchem-fragalysis-2/maxwin/BulkDock/SCRATCH/511025/C51159-P122/C51159-P122.minimised.mol

>  <scratch_subdir>  (617) 
/opt/xchem-fragalysis-2/maxwin/BulkDock/SCRATCH/511025/C51159-P122

>  <fragmenstein_runtime>  (617) 
6.722963571548462

>  <fragmenstein_outcome>  (617) 
too moved

>  <fragmenstein_mode>  (617) 
expansion

>  <fragmenstein_error>  (617) 


$$$$
C51159-P44
     RDKit          3D

 39 40  0  0  0  0  0  0  0  0999 V2000
   12.6365    4.0467    9.1921 C   0  0  0  0  0  0  0  0  0  0  0  0
   12.4589    4.0895   10.5143 C   0  0  0  0  0  0  0  0  0  0  0  0
   13.4226    3.9767   11.6745 C   0  0  0  0  0  0  0  0  0  0  0  0
   12.1473    3.7270   12.5278 C   0  0  0  0  0  0  0  0  0  0  0  0
   11.8925    2.2642   12.9337 C   0  0  0  0  0  0  0  0  0  0  0  0
   12.9434    1.7641   13.9171 C   0  0  0  0  0  0  0  0  0  0  0  0
   13.7998    2.4515   14.3196 O   0  0  0  0  0  0  0  0  0  0  0  0
   12.6575    0.2579   14.1717 N   0  0  0  0  0  0  0  0  0  0  0  0
   13.2722   -0.6281   14.9947 C   0  0  0  0  0  0  0  0  0  0  0  0
   14.4818   -0.3789   15.6608 C   0  0  0  0  0  0  0  0  0  0  0  0
   14.7152   -1.4884   16.4207 C   0  0  0  0  0  0  0  0  0  0  0  0
   13.7308   -2.3788   16.0987 N   0  0  0  0  0  0  0  0  0  0  0  0
   13.6764   -3.7676   16.5666 C   0  0  0  0  0  0  0  0  0  0  0  0
   12.5416   -4.5226   15.8632 C   0  0  0  0  0  0  0  0  0  0  0  0
   13.4277   -3.7880   18.0802 C   0  0  0  0  0  0  0  0  0  0  0  0
   15.0233   -4.4236   16.2606 C   0  0  0  0  0  0  0  0  0  0  0  0
   15.3044   -5.1477   15.3169 O   0  0  0  0  0  0  0  0  0  0  0  0
   16.0032   -4.1562   17.1567 O   0  0  0  0  0  0  0  0  0  0  0  0
   12.7856   -1.8376   15.2789 N   0  0  0  0  0  0  0  0  0  0  0  0
   11.2524    4.2907   11.3996 C   0  0  0  0  0  0  0  0  0  0  0  0
   13.6281    3.8965    8.7771 H   0  0  0  0  0  0  0  0  0  0  0  0
   11.8049    4.1712    8.5089 H   0  0  0  0  0  0  0  0  0  0  0  0
   13.9608    4.8959   11.9303 H   0  0  0  0  0  0  0  0  0  0  0  0
   14.1396    3.1510   11.6372 H   0  0  0  0  0  0  0  0  0  0  0  0
   12.1099    4.3624   13.4251 H   0  0  0  0  0  0  0  0  0  0  0  0
   10.9098    2.1844   13.4126 H   0  0  0  0  0  0  0  0  0  0  0  0
   11.9009    1.6143   12.0510 H   0  0  0  0  0  0  0  0  0  0  0  0
   11.7833    0.0002   13.7314 H   0  0  0  0  0  0  0  0  0  0  0  0
   15.0924    0.5119   15.6207 H   0  0  0  0  0  0  0  0  0  0  0  0
   15.5134   -1.7183   17.1129 H   0  0  0  0  0  0  0  0  0  0  0  0
   11.5668   -4.1092   16.1410 H   0  0  0  0  0  0  0  0  0  0  0  0
   12.5327   -5.5854   16.1051 H   0  0  0  0  0  0  0  0  0  0  0  0
   12.6285   -4.4395   14.7772 H   0  0  0  0  0  0  0  0  0  0  0  0
   12.5029   -3.2647   18.3082 H   0  0  0  0  0  0  0  0  0  0  0  0
   14.2166   -3.2812   18.6477 H   0  0  0  0  0  0  0  0  0  0  0  0
   13.3592   -4.8087   18.4674 H   0  0  0  0  0  0  0  0  0  0  0  0
   16.7730   -4.6656   16.8273 H   0  0  0  0  0  0  0  0  0  0  0  0
   10.9434    5.3315   11.5446 H   0  0  0  0  0  0  0  0  0  0  0  0
   10.3679    3.6897   11.1872 H   0  0  0  0  0  0  0  0  0  0  0  0
  1  2  2  0
  2  3  1  0
  3  4  1  0
  4  5  1  0
  5  6  1  0
  6  7  2  0
  6  8  1  0
  8  9  1  0
  9 10  1  0
 10 11  2  0
 11 12  1  0
 12 13  1  0
 13 14  1  0
 13 15  1  0
 13 16  1  0
 16 17  2  0
 16 18  1  0
 12 19  1  0
  4 20  1  0
 20  2  1  0
 19  9  2  0
  1 21  1  0
  1 22  1  0
  3 23  1  0
  3 24  1  0
  4 25  1  0
  5 26  1  0
  5 27  1  0
  8 28  1  0
 10 29  1  0
 11 30  1  0
 14 31  1  0
 14 32  1  0
 14 33  1  0
 15 34  1  0
 15 35  1  0
 15 36  1  0
 18 37  1  0
 20 38  1  0
 20 39  1  0
M  END
>  <Energy>  (618) 
-14.12986207296146

>  <compound_id>  (618) 
51159

>  <target_id>  (618) 
1

>  <reference_id>  (618) 
44

>  <inspiration_ids>  (618) 
[122, 44]

>  <energy_score>  (618) 
-33.65273323647024

>  <distance_score>  (618) 
1.7203223624472341

>  <path>  (618) 
/opt/xchem-fragalysis-2/maxwin/BulkDock/SCRATCH/511025/C51159-P44/C51159-P44.minimised.mol

>  <scratch_subdir>  (618) 
/opt/xchem-fragalysis-2/maxwin/BulkDock/SCRATCH/511025/C51159-P44

>  <fragmenstein_runtime>  (618) 
10.482285499572754

>  <fragmenstein_outcome>  (618) 
too moved

>  <fragmenstein_mode>  (618) 
expansion

>  <fragmenstein_error>  (618) 


$$$$
C51160-P122
     RDKit          3D

 40 41  0  0  0  0  0  0  0  0999 V2000
    1.9151    3.9621   27.0387 C   0  0  0  0  0  0  0  0  0  0  0  0
    1.8833    2.5072   26.5335 C   0  0  0  0  0  0  0  0  0  0  0  0
    0.5268    1.8981   26.9620 C   0  0  0  0  0  0  0  0  0  0  0  0
    3.0045    1.7772   27.2767 C   0  0  0  0  0  0  0  0  0  0  0  0
    2.8627    0.9590   28.1758 O   0  0  0  0  0  0  0  0  0  0  0  0
    4.2531    2.1751   26.9365 O   0  0  0  0  0  0  0  0  0  0  0  0
    2.0681    2.4178   25.0665 N   0  0  0  0  0  0  0  0  0  0  0  0
    1.6312    3.2933   24.1118 C   0  0  0  0  0  0  0  0  0  0  0  0
    2.1489    2.8499   22.9121 C   0  0  0  0  0  0  0  0  0  0  0  0
    2.8448    1.5381   23.1571 C   0  0  0  0  0  0  0  0  0  0  0  0
    3.9872    1.0945   21.8237 N   0  0  0  0  0  0  0  0  0  0  0  0
    5.2278   -0.2028   21.6185 C   0  0  0  0  0  0  0  0  0  0  0  0
    5.4935   -1.1676   22.3269 O   0  0  0  0  0  0  0  0  0  0  0  0
    6.6634   -0.0383   20.0535 C   0  0  0  0  0  0  0  0  0  0  0  0
    7.4934    0.0511   18.2984 C   0  0  0  0  0  0  0  0  0  0  0  0
    7.2653   -0.4372   16.7147 C   0  0  0  0  0  0  0  0  0  0  0  0
    8.5940   -1.1766   15.6477 S   0  0  0  0  0  0  0  0  0  0  0  0
    9.9225    0.0292   15.7544 C   0  0  0  0  0  0  0  0  0  0  0  0
    9.5176    1.4439   16.0918 C   0  0  0  0  0  0  0  0  0  0  0  0
    8.4150    1.8860   17.4927 S   0  0  0  0  0  0  0  0  0  0  0  0
    2.7752    1.3875   24.5419 N   0  0  0  0  0  0  0  0  0  0  0  0
    2.8118    4.4871   26.6881 H   0  0  0  0  0  0  0  0  0  0  0  0
    1.0443    4.5304   26.6930 H   0  0  0  0  0  0  0  0  0  0  0  0
    1.9220    4.0053   28.1346 H   0  0  0  0  0  0  0  0  0  0  0  0
    0.3031    2.1328   28.0099 H   0  0  0  0  0  0  0  0  0  0  0  0
   -0.2959    2.2850   26.3504 H   0  0  0  0  0  0  0  0  0  0  0  0
    0.5241    0.8072   26.8884 H   0  0  0  0  0  0  0  0  0  0  0  0
    4.8246    1.4834   27.3366 H   0  0  0  0  0  0  0  0  0  0  0  0
    1.0592    4.1769   24.3554 H   0  0  0  0  0  0  0  0  0  0  0  0
    2.0937    3.3528   21.9579 H   0  0  0  0  0  0  0  0  0  0  0  0
    3.9552    1.6355   21.0868 H   0  0  0  0  0  0  0  0  0  0  0  0
    7.3263    0.7860   20.4087 H   0  0  0  0  0  0  0  0  0  0  0  0
    7.2444   -0.9223   20.3372 H   0  0  0  0  0  0  0  0  0  0  0  0
    8.2982   -0.5783   18.5728 H   0  0  0  0  0  0  0  0  0  0  0  0
    7.2792    0.4343   16.1484 H   0  0  0  0  0  0  0  0  0  0  0  0
    6.3038   -0.9076   16.5303 H   0  0  0  0  0  0  0  0  0  0  0  0
   10.6871   -0.3398   16.4369 H   0  0  0  0  0  0  0  0  0  0  0  0
   10.4180    0.0385   14.7761 H   0  0  0  0  0  0  0  0  0  0  0  0
   10.4343    2.0241   16.2534 H   0  0  0  0  0  0  0  0  0  0  0  0
    9.0687    1.8961   15.2057 H   0  0  0  0  0  0  0  0  0  0  0  0
  1  2  1  0
  2  3  1  0
  2  4  1  0
  4  5  2  0
  4  6  1  0
  2  7  1  0
  7  8  1  0
  8  9  2  0
  9 10  1  0
 10 11  1  0
 11 12  1  0
 12 13  2  0
 12 14  1  0
 14 15  1  0
 15 16  1  0
 16 17  1  0
 17 18  1  0
 18 19  1  0
 19 20  1  0
 10 21  2  0
 21  7  1  0
 20 15  1  0
  1 22  1  0
  1 23  1  0
  1 24  1  0
  3 25  1  0
  3 26  1  0
  3 27  1  0
  6 28  1  0
  8 29  1  0
  9 30  1  0
 11 31  1  0
 14 32  1  0
 14 33  1  0
 15 34  1  0
 16 35  1  0
 16 36  1  0
 18 37  1  0
 18 38  1  0
 19 39  1  0
 19 40  1  0
M  END
>  <Energy>  (619) 
406.10176302034233

>  <compound_id>  (619) 
51160

>  <target_id>  (619) 
1

>  <reference_id>  (619) 
122

>  <inspiration_ids>  (619) 
[122, 44]

>  <energy_score>  (619) 
337.8949457456953

>  <distance_score>  (619) 
5.672506546903546

>  <path>  (619) 
/opt/xchem-fragalysis-2/maxwin/BulkDock/SCRATCH/511025/C51160-P122/C51160-P122.minimised.mol

>  <scratch_subdir>  (619) 
/opt/xchem-fragalysis-2/maxwin/BulkDock/SCRATCH/511025/C51160-P122

>  <fragmenstein_runtime>  (619) 
30.129639148712158

>  <fragmenstein_outcome>  (619) 
too moved

>  <fragmenstein_mode>  (619) 
expansion

>  <fragmenstein_error>  (619) 


$$$$
C51160-P44
     RDKit          3D

 40 41  0  0  0  0  0  0  0  0999 V2000
    3.9992    0.6815   28.9590 C   0  0  0  0  0  0  0  0  0  0  0  0
    3.0107    0.1892   27.8782 C   0  0  0  0  0  0  0  0  0  0  0  0
    2.9584   -1.3440   27.9984 C   0  0  0  0  0  0  0  0  0  0  0  0
    1.6245    0.7547   28.2170 C   0  0  0  0  0  0  0  0  0  0  0  0
    1.4351    1.6371   29.0482 O   0  0  0  0  0  0  0  0  0  0  0  0
    0.5786    0.2369   27.5370 O   0  0  0  0  0  0  0  0  0  0  0  0
    3.4516    0.6993   26.5665 N   0  0  0  0  0  0  0  0  0  0  0  0
    3.4248    2.0160   26.1884 C   0  0  0  0  0  0  0  0  0  0  0  0
    3.9984    2.0670   24.9448 C   0  0  0  0  0  0  0  0  0  0  0  0
    4.3416    0.7259   24.6024 C   0  0  0  0  0  0  0  0  0  0  0  0
    4.8338    0.4074   23.3017 N   0  0  0  0  0  0  0  0  0  0  0  0
    5.0640   -0.9235   22.6239 C   0  0  0  0  0  0  0  0  0  0  0  0
    4.8000   -2.0227   23.0188 O   0  0  0  0  0  0  0  0  0  0  0  0
    6.1370   -1.0508   20.8116 C   0  0  0  0  0  0  0  0  0  0  0  0
    7.1808    0.0421   19.4542 C   0  0  0  0  0  0  0  0  0  0  0  0
    7.5231    0.0013   17.8920 C   0  0  0  0  0  0  0  0  0  0  0  0
    9.0956    0.0411   16.8469 S   0  0  0  0  0  0  0  0  0  0  0  0
    9.2544    1.8572   16.7659 C   0  0  0  0  0  0  0  0  0  0  0  0
    8.6767    2.5973   17.9905 C   0  0  0  0  0  0  0  0  0  0  0  0
    8.4080    1.6744   19.5973 S   0  0  0  0  0  0  0  0  0  0  0  0
    4.0119   -0.0992   25.6135 N   0  0  0  0  0  0  0  0  0  0  0  0
    3.6991    0.3468   29.9593 H   0  0  0  0  0  0  0  0  0  0  0  0
    5.0110    0.3047   28.7673 H   0  0  0  0  0  0  0  0  0  0  0  0
    4.0633    1.7757   28.9912 H   0  0  0  0  0  0  0  0  0  0  0  0
    3.9515   -1.7875   27.8610 H   0  0  0  0  0  0  0  0  0  0  0  0
    2.2997   -1.8029   27.2638 H   0  0  0  0  0  0  0  0  0  0  0  0
    2.5909   -1.6494   28.9855 H   0  0  0  0  0  0  0  0  0  0  0  0
    0.7608   -0.4741   26.8895 H   0  0  0  0  0  0  0  0  0  0  0  0
    3.0160    2.7923   26.8228 H   0  0  0  0  0  0  0  0  0  0  0  0
    4.1177    2.9497   24.3334 H   0  0  0  0  0  0  0  0  0  0  0  0
    5.0738    1.1189   22.6878 H   0  0  0  0  0  0  0  0  0  0  0  0
    5.7594   -2.1071   20.5611 H   0  0  0  0  0  0  0  0  0  0  0  0
    7.1027   -1.5023   20.8574 H   0  0  0  0  0  0  0  0  0  0  0  0
    6.3277    0.5551   19.1725 H   0  0  0  0  0  0  0  0  0  0  0  0
    6.7079   -0.4587   17.3019 H   0  0  0  0  0  0  0  0  0  0  0  0
    7.4695    0.9985   17.5998 H   0  0  0  0  0  0  0  0  0  0  0  0
   10.2991    2.1057   16.5898 H   0  0  0  0  0  0  0  0  0  0  0  0
    8.7255    2.1992   15.8683 H   0  0  0  0  0  0  0  0  0  0  0  0
    7.7261    3.0797   17.7299 H   0  0  0  0  0  0  0  0  0  0  0  0
    9.3388    3.4358   18.2327 H   0  0  0  0  0  0  0  0  0  0  0  0
  1  2  1  0
  2  3  1  0
  2  4  1  0
  4  5  2  0
  4  6  1  0
  2  7  1  0
  7  8  1  0
  8  9  2  0
  9 10  1  0
 10 11  1  0
 11 12  1  0
 12 13  2  0
 12 14  1  0
 14 15  1  0
 15 16  1  0
 16 17  1  0
 17 18  1  0
 18 19  1  0
 19 20  1  0
 10 21  2  0
 21  7  1  0
 20 15  1  0
  1 22  1  0
  1 23  1  0
  1 24  1  0
  3 25  1  0
  3 26  1  0
  3 27  1  0
  6 28  1  0
  8 29  1  0
  9 30  1  0
 11 31  1  0
 14 32  1  0
 14 33  1  0
 15 34  1  0
 16 35  1  0
 16 36  1  0
 18 37  1  0
 18 38  1  0
 19 39  1  0
 19 40  1  0
M  END
>  <Energy>  (620) 
327.73174850698081

>  <compound_id>  (620) 
51160

>  <target_id>  (620) 
1

>  <reference_id>  (620) 
44

>  <inspiration_ids>  (620) 
[122, 44]

>  <energy_score>  (620) 
259.5249312323415

>  <distance_score>  (620) 
6.094824487211256

>  <path>  (620) 
/opt/xchem-fragalysis-2/maxwin/BulkDock/SCRATCH/511025/C51160-P44/C51160-P44.minimised.mol

>  <scratch_subdir>  (620) 
/opt/xchem-fragalysis-2/maxwin/BulkDock/SCRATCH/511025/C51160-P44

>  <fragmenstein_runtime>  (620) 
24.497234344482422

>  <fragmenstein_outcome>  (620) 
too moved

>  <fragmenstein_mode>  (620) 
expansion

>  <fragmenstein_error>  (620) 


$$$$
C51162-P122
     RDKit          3D

 48 50  0  0  0  0  0  0  0  0999 V2000
   -1.2141    2.6230   26.5232 C   0  0  0  0  0  0  0  0  0  0  0  0
    0.1662    3.3152   26.5622 C   0  0  0  0  0  0  0  0  0  0  0  0
    1.0559    2.4980   27.5312 C   0  0  0  0  0  0  0  0  0  0  0  0
   -0.0411    4.7144   27.1489 C   0  0  0  0  0  0  0  0  0  0  0  0
    0.1539    5.7911   26.6090 O   0  0  0  0  0  0  0  0  0  0  0  0
   -0.5541    4.6749   28.4053 O   0  0  0  0  0  0  0  0  0  0  0  0
    0.7482    3.3873   25.1988 N   0  0  0  0  0  0  0  0  0  0  0  0
    0.1782    3.9139   24.0648 C   0  0  0  0  0  0  0  0  0  0  0  0
    0.9666    3.5182   23.0005 C   0  0  0  0  0  0  0  0  0  0  0  0
    1.9879    2.7229   23.5655 C   0  0  0  0  0  0  0  0  0  0  0  0
    2.9414    1.8773   22.9810 N   0  0  0  0  0  0  0  0  0  0  0  0
    3.0919    1.3419   21.5491 C   0  0  0  0  0  0  0  0  0  0  0  0
    2.3164    1.5019   20.6348 O   0  0  0  0  0  0  0  0  0  0  0  0
    4.9792    0.3668   21.2517 C   0  0  0  0  0  0  0  0  0  0  0  0
    6.3351    0.2634   19.5059 C   0  0  0  0  0  0  0  0  0  0  0  0
    7.6744   -0.3535   19.2380 C   0  0  0  0  0  0  0  0  0  0  0  0
    8.6687    0.1679   17.6347 C   0  0  0  0  0  0  0  0  0  0  0  0
    7.9376    0.8522   16.6415 C   0  0  0  0  0  0  0  0  0  0  0  0
    7.8530    2.1176   17.5153 C   0  0  0  0  0  0  0  0  0  0  0  0
    7.2312    1.7733   19.0504 C   0  0  0  0  0  0  0  0  0  0  0  0
    7.0918   -0.4733   16.5441 C   0  0  0  0  0  0  0  0  0  0  0  0
    6.0436   -0.7840   17.9291 C   0  0  0  0  0  0  0  0  0  0  0  0
    1.9122    2.7576   24.9085 N   0  0  0  0  0  0  0  0  0  0  0  0
   -1.9238    3.1749   25.8960 H   0  0  0  0  0  0  0  0  0  0  0  0
   -1.1435    1.6071   26.1303 H   0  0  0  0  0  0  0  0  0  0  0  0
   -1.6638    2.5507   27.5207 H   0  0  0  0  0  0  0  0  0  0  0  0
    1.2208    1.4784   27.1644 H   0  0  0  0  0  0  0  0  0  0  0  0
    0.6062    2.4148   28.5274 H   0  0  0  0  0  0  0  0  0  0  0  0
    2.0351    2.9742   27.6606 H   0  0  0  0  0  0  0  0  0  0  0  0
   -0.8119    5.5924   28.6575 H   0  0  0  0  0  0  0  0  0  0  0  0
   -0.7325    4.4967   24.1038 H   0  0  0  0  0  0  0  0  0  0  0  0
    0.7898    3.7053   21.9509 H   0  0  0  0  0  0  0  0  0  0  0  0
    3.6827    1.5155   23.5303 H   0  0  0  0  0  0  0  0  0  0  0  0
    5.0237   -0.5898   21.8076 H   0  0  0  0  0  0  0  0  0  0  0  0
    5.6035    0.8714   21.9286 H   0  0  0  0  0  0  0  0  0  0  0  0
    8.0001   -1.3001   19.2692 H   0  0  0  0  0  0  0  0  0  0  0  0
    8.0806   -0.2514   20.2526 H   0  0  0  0  0  0  0  0  0  0  0  0
    9.5263    0.8135   17.7473 H   0  0  0  0  0  0  0  0  0  0  0  0
    9.1281   -0.5282   16.8975 H   0  0  0  0  0  0  0  0  0  0  0  0
    8.5527    1.0492   15.7537 H   0  0  0  0  0  0  0  0  0  0  0  0
    7.2015    2.8602   17.0185 H   0  0  0  0  0  0  0  0  0  0  0  0
    8.8009    2.6643   17.5570 H   0  0  0  0  0  0  0  0  0  0  0  0
    6.9718    2.8134   19.1288 H   0  0  0  0  0  0  0  0  0  0  0  0
    7.6919    1.6485   20.0158 H   0  0  0  0  0  0  0  0  0  0  0  0
    6.7835   -0.7733   15.5577 H   0  0  0  0  0  0  0  0  0  0  0  0
    7.7658   -1.3231   16.2982 H   0  0  0  0  0  0  0  0  0  0  0  0
    6.0004   -1.7464   18.3247 H   0  0  0  0  0  0  0  0  0  0  0  0
    5.0240   -1.0506   17.6445 H   0  0  0  0  0  0  0  0  0  0  0  0
  1  2  1  0
  2  3  1  0
  2  4  1  0
  4  5  2  0
  4  6  1  0
  2  7  1  0
  7  8  1  0
  8  9  2  0
  9 10  1  0
 10 11  1  0
 11 12  1  0
 12 13  2  0
 12 14  1  0
 14 15  1  0
 15 16  1  0
 16 17  1  0
 17 18  1  0
 18 19  1  0
 19 20  1  0
 18 21  1  0
 21 22  1  0
 10 23  2  0
 23  7  1  0
 20 15  1  0
 22 15  1  0
  1 24  1  0
  1 25  1  0
  1 26  1  0
  3 27  1  0
  3 28  1  0
  3 29  1  0
  6 30  1  0
  8 31  1  0
  9 32  1  0
 11 33  1  0
 14 34  1  0
 14 35  1  0
 16 36  1  0
 16 37  1  0
 17 38  1  0
 17 39  1  0
 18 40  1  0
 19 41  1  0
 19 42  1  0
 20 43  1  0
 20 44  1  0
 21 45  1  0
 21 46  1  0
 22 47  1  0
 22 48  1  0
M  END
>  <Energy>  (621) 
581.78822525651788

>  <compound_id>  (621) 
51162

>  <target_id>  (621) 
1

>  <reference_id>  (621) 
122

>  <inspiration_ids>  (621) 
[122, 44]

>  <energy_score>  (621) 
527.5883560044161

>  <distance_score>  (621) 
5.665002261651031

>  <path>  (621) 
/opt/xchem-fragalysis-2/maxwin/BulkDock/SCRATCH/511025/C51162-P122/C51162-P122.minimised.mol

>  <scratch_subdir>  (621) 
/opt/xchem-fragalysis-2/maxwin/BulkDock/SCRATCH/511025/C51162-P122

>  <fragmenstein_runtime>  (621) 
266.3031325340271

>  <fragmenstein_outcome>  (621) 
too moved

>  <fragmenstein_mode>  (621) 
expansion

>  <fragmenstein_error>  (621) 


$$$$
C51162-P44
     RDKit          3D

 48 50  0  0  0  0  0  0  0  0999 V2000
    2.6683    5.0915   26.3723 C   0  0  0  0  0  0  0  0  0  0  0  0
    3.5374    4.2920   25.3757 C   0  0  0  0  0  0  0  0  0  0  0  0
    3.1134    2.8059   25.5162 C   0  0  0  0  0  0  0  0  0  0  0  0
    5.0124    4.3939   25.7623 C   0  0  0  0  0  0  0  0  0  0  0  0
    5.8558    3.5128   25.6621 O   0  0  0  0  0  0  0  0  0  0  0  0
    5.3759    5.5942   26.2672 O   0  0  0  0  0  0  0  0  0  0  0  0
    3.3353    4.7637   23.9902 N   0  0  0  0  0  0  0  0  0  0  0  0
    2.1545    4.7027   23.2958 C   0  0  0  0  0  0  0  0  0  0  0  0
    2.4608    5.0738   22.0095 C   0  0  0  0  0  0  0  0  0  0  0  0
    3.8519    5.3935   21.9965 C   0  0  0  0  0  0  0  0  0  0  0  0
    4.5254    5.6698   20.8122 N   0  0  0  0  0  0  0  0  0  0  0  0
    5.9126    6.0641   20.5662 C   0  0  0  0  0  0  0  0  0  0  0  0
    6.8010    6.3268   21.3318 O   0  0  0  0  0  0  0  0  0  0  0  0
    6.1889    6.1314   19.0182 C   0  0  0  0  0  0  0  0  0  0  0  0
    7.4955    5.5323   18.3546 C   0  0  0  0  0  0  0  0  0  0  0  0
    8.8202    5.9324   19.0406 C   0  0  0  0  0  0  0  0  0  0  0  0
   10.0387    5.4521   18.2291 C   0  0  0  0  0  0  0  0  0  0  0  0
    9.6002    4.5848   17.0396 C   0  0  0  0  0  0  0  0  0  0  0  0
    8.7386    5.4408   16.1062 C   0  0  0  0  0  0  0  0  0  0  0  0
    7.5722    6.0739   16.8876 C   0  0  0  0  0  0  0  0  0  0  0  0
    8.7399    3.4365   17.5648 C   0  0  0  0  0  0  0  0  0  0  0  0
    7.4746    3.9908   18.2235 C   0  0  0  0  0  0  0  0  0  0  0  0
    4.3502    5.2824   23.2354 N   0  0  0  0  0  0  0  0  0  0  0  0
    2.8439    6.1695   26.2750 H   0  0  0  0  0  0  0  0  0  0  0  0
    1.5984    4.9251   26.2027 H   0  0  0  0  0  0  0  0  0  0  0  0
    2.8924    4.8114   27.4081 H   0  0  0  0  0  0  0  0  0  0  0  0
    3.6273    2.1788   24.7778 H   0  0  0  0  0  0  0  0  0  0  0  0
    2.0364    2.6808   25.3651 H   0  0  0  0  0  0  0  0  0  0  0  0
    3.3598    2.4153   26.5104 H   0  0  0  0  0  0  0  0  0  0  0  0
    6.3541    5.5413   26.3066 H   0  0  0  0  0  0  0  0  0  0  0  0
    1.2327    4.3681   23.7492 H   0  0  0  0  0  0  0  0  0  0  0  0
    1.7832    5.0801   21.1690 H   0  0  0  0  0  0  0  0  0  0  0  0
    4.0853    5.4476   19.9356 H   0  0  0  0  0  0  0  0  0  0  0  0
    5.3327    5.7126   18.4756 H   0  0  0  0  0  0  0  0  0  0  0  0
    6.1700    7.2096   18.8018 H   0  0  0  0  0  0  0  0  0  0  0  0
    8.8846    5.5076   20.0462 H   0  0  0  0  0  0  0  0  0  0  0  0
    8.8726    7.0213   19.1629 H   0  0  0  0  0  0  0  0  0  0  0  0
   10.6047    6.3200   17.8689 H   0  0  0  0  0  0  0  0  0  0  0  0
   10.7116    4.9018   18.8940 H   0  0  0  0  0  0  0  0  0  0  0  0
   10.4706    4.2023   16.4976 H   0  0  0  0  0  0  0  0  0  0  0  0
    8.3468    4.8293   15.2840 H   0  0  0  0  0  0  0  0  0  0  0  0
    9.3430    6.2320   15.6465 H   0  0  0  0  0  0  0  0  0  0  0  0
    6.6341    5.8737   16.3541 H   0  0  0  0  0  0  0  0  0  0  0  0
    7.6934    7.1648   16.8975 H   0  0  0  0  0  0  0  0  0  0  0  0
    8.4681    2.7550   16.7497 H   0  0  0  0  0  0  0  0  0  0  0  0
    9.2946    2.8380   18.2952 H   0  0  0  0  0  0  0  0  0  0  0  0
    7.3640    3.5191   19.1995 H   0  0  0  0  0  0  0  0  0  0  0  0
    6.6198    3.7060   17.6024 H   0  0  0  0  0  0  0  0  0  0  0  0
  1  2  1  0
  2  3  1  0
  2  4  1  0
  4  5  2  0
  4  6  1  0
  2  7  1  0
  7  8  1  0
  8  9  2  0
  9 10  1  0
 10 11  1  0
 11 12  1  0
 12 13  2  0
 12 14  1  0
 14 15  1  0
 15 16  1  0
 16 17  1  0
 17 18  1  0
 18 19  1  0
 19 20  1  0
 18 21  1  0
 21 22  1  0
 10 23  2  0
 23  7  1  0
 20 15  1  0
 22 15  1  0
  1 24  1  0
  1 25  1  0
  1 26  1  0
  3 27  1  0
  3 28  1  0
  3 29  1  0
  6 30  1  0
  8 31  1  0
  9 32  1  0
 11 33  1  0
 14 34  1  0
 14 35  1  0
 16 36  1  0
 16 37  1  0
 17 38  1  0
 17 39  1  0
 18 40  1  0
 19 41  1  0
 19 42  1  0
 20 43  1  0
 20 44  1  0
 21 45  1  0
 21 46  1  0
 22 47  1  0
 22 48  1  0
M  END
>  <Energy>  (622) 
12.759034510393438

>  <compound_id>  (622) 
51162

>  <target_id>  (622) 
1

>  <reference_id>  (622) 
44

>  <inspiration_ids>  (622) 
[122, 44]

>  <energy_score>  (622) 
-41.44083474169781

>  <distance_score>  (622) 
8.076478512436328

>  <path>  (622) 
/opt/xchem-fragalysis-2/maxwin/BulkDock/SCRATCH/511025/C51162-P44/C51162-P44.minimised.mol

>  <scratch_subdir>  (622) 
/opt/xchem-fragalysis-2/maxwin/BulkDock/SCRATCH/511025/C51162-P44

>  <fragmenstein_runtime>  (622) 
193.31046676635742

>  <fragmenstein_outcome>  (622) 
too moved

>  <fragmenstein_mode>  (622) 
expansion

>  <fragmenstein_error>  (622) 


$$$$
C51165-P122
     RDKit          3D

 45 46  0  0  0  0  0  0  0  0999 V2000
   10.4802    0.9471   13.7555 C   0  0  0  0  0  0  0  0  0  0  0  0
   10.7338    0.4004   15.1692 C   0  0  0  0  0  0  0  0  0  0  0  0
   12.0440    1.0360   15.6963 C   0  0  0  0  0  0  0  0  0  0  0  0
   11.0047   -1.0919   15.0811 C   0  0  0  0  0  0  0  0  0  0  0  0
   10.5017   -1.9789   15.7467 O   0  0  0  0  0  0  0  0  0  0  0  0
   11.9606   -1.4237   14.1816 O   0  0  0  0  0  0  0  0  0  0  0  0
    9.5926    0.7707   16.0534 N   0  0  0  0  0  0  0  0  0  0  0  0
    8.6424    0.0295   16.7621 C   0  0  0  0  0  0  0  0  0  0  0  0
    8.1251    0.8335   17.7852 C   0  0  0  0  0  0  0  0  0  0  0  0
    7.0671    0.7574   19.1975 N   0  0  0  0  0  0  0  0  0  0  0  0
    6.8052    0.1418   20.0819 C   0  0  0  0  0  0  0  0  0  0  0  0
    7.9072   -1.0185   20.0209 O   0  0  0  0  0  0  0  0  0  0  0  0
    5.2137    0.2867   21.4433 C   0  0  0  0  0  0  0  0  0  0  0  0
    3.5025    1.0988   21.7022 O   0  0  0  0  0  0  0  0  0  0  0  0
    2.5388    2.6483   21.8711 C   0  0  0  0  0  0  0  0  0  0  0  0
    0.9882    2.9950   22.1764 C   0  0  0  0  0  0  0  0  0  0  0  0
    0.6158    3.3235   23.6408 C   0  0  0  0  0  0  0  0  0  0  0  0
    1.2826    4.5976   24.1038 C   0  0  0  0  0  0  0  0  0  0  0  0
    2.7770    4.4878   23.8839 C   0  0  0  0  0  0  0  0  0  0  0  0
    3.1358    4.1173   22.4292 C   0  0  0  0  0  0  0  0  0  0  0  0
    8.4601    2.1317   17.1810 C   0  0  0  0  0  0  0  0  0  0  0  0
    9.3373    2.0829   16.1867 N   0  0  0  0  0  0  0  0  0  0  0  0
   11.2815    0.6876   13.0549 H   0  0  0  0  0  0  0  0  0  0  0  0
    9.5536    0.5320   13.3586 H   0  0  0  0  0  0  0  0  0  0  0  0
   10.3945    2.0395   13.7461 H   0  0  0  0  0  0  0  0  0  0  0  0
   11.9302    2.1003   15.9281 H   0  0  0  0  0  0  0  0  0  0  0  0
   12.8504    0.9527   14.9570 H   0  0  0  0  0  0  0  0  0  0  0  0
   12.4043    0.5292   16.5966 H   0  0  0  0  0  0  0  0  0  0  0  0
   11.9168   -2.4045   14.1526 H   0  0  0  0  0  0  0  0  0  0  0  0
    8.4806   -0.9798   16.4350 H   0  0  0  0  0  0  0  0  0  0  0  0
    7.0005    1.5622   18.5906 H   0  0  0  0  0  0  0  0  0  0  0  0
    5.6599    0.9506   22.0572 H   0  0  0  0  0  0  0  0  0  0  0  0
    5.0968   -0.6845   21.9308 H   0  0  0  0  0  0  0  0  0  0  0  0
    2.4216    2.7690   20.7762 H   0  0  0  0  0  0  0  0  0  0  0  0
    0.7693    3.9180   21.6112 H   0  0  0  0  0  0  0  0  0  0  0  0
    0.2348    2.3561   21.7486 H   0  0  0  0  0  0  0  0  0  0  0  0
    0.8994    2.5236   24.3303 H   0  0  0  0  0  0  0  0  0  0  0  0
   -0.4719    3.4399   23.7156 H   0  0  0  0  0  0  0  0  0  0  0  0
    0.8849    5.4541   23.5462 H   0  0  0  0  0  0  0  0  0  0  0  0
    1.0668    4.7779   25.1627 H   0  0  0  0  0  0  0  0  0  0  0  0
    3.1814    3.7657   24.5949 H   0  0  0  0  0  0  0  0  0  0  0  0
    3.2394    5.4526   24.1251 H   0  0  0  0  0  0  0  0  0  0  0  0
    4.1966    4.3410   22.2694 H   0  0  0  0  0  0  0  0  0  0  0  0
    2.6643    4.8827   21.7909 H   0  0  0  0  0  0  0  0  0  0  0  0
    8.1010    3.1062   17.4880 H   0  0  0  0  0  0  0  0  0  0  0  0
  1  2  1  0
  2  3  1  0
  2  4  1  0
  4  5  2  0
  4  6  1  0
  2  7  1  0
  7  8  1  0
  8  9  2  0
  9 10  1  0
 10 11  1  0
 11 12  2  0
 11 13  1  0
 13 14  1  0
 14 15  1  0
 15 16  1  0
 16 17  1  0
 17 18  1  0
 18 19  1  0
 19 20  1  0
  9 21  1  0
 21 22  2  0
 22  7  1  0
 20 15  1  0
  1 23  1  0
  1 24  1  0
  1 25  1  0
  3 26  1  0
  3 27  1  0
  3 28  1  0
  6 29  1  0
  8 30  1  0
 10 31  1  0
 13 32  1  0
 13 33  1  0
 15 34  1  0
 16 35  1  0
 16 36  1  0
 17 37  1  0
 17 38  1  0
 18 39  1  0
 18 40  1  0
 19 41  1  0
 19 42  1  0
 20 43  1  0
 20 44  1  0
 21 45  1  0
M  END
>  <Energy>  (623) 
599.23345183019114

>  <compound_id>  (623) 
51165

>  <target_id>  (623) 
1

>  <reference_id>  (623) 
122

>  <inspiration_ids>  (623) 
[122, 44]

>  <energy_score>  (623) 
481.5364964638942

>  <distance_score>  (623) 
5.928012516832919

>  <path>  (623) 
/opt/xchem-fragalysis-2/maxwin/BulkDock/SCRATCH/511025/C51165-P122/C51165-P122.minimised.mol

>  <scratch_subdir>  (623) 
/opt/xchem-fragalysis-2/maxwin/BulkDock/SCRATCH/511025/C51165-P122

>  <fragmenstein_runtime>  (623) 
14.93307876586914

>  <fragmenstein_outcome>  (623) 
too moved

>  <fragmenstein_mode>  (623) 
expansion

>  <fragmenstein_error>  (623) 


$$$$
C51165-P44
     RDKit          3D

 45 46  0  0  0  0  0  0  0  0999 V2000
   10.1348    4.8296   17.2775 C   0  0  0  0  0  0  0  0  0  0  0  0
    9.0229    3.8955   16.7688 C   0  0  0  0  0  0  0  0  0  0  0  0
    9.2662    2.4044   17.0126 C   0  0  0  0  0  0  0  0  0  0  0  0
    9.0297    4.0785   15.2343 C   0  0  0  0  0  0  0  0  0  0  0  0
   10.0429    3.9073   14.5555 O   0  0  0  0  0  0  0  0  0  0  0  0
    7.8826    4.4193   14.6115 O   0  0  0  0  0  0  0  0  0  0  0  0
    7.7615    4.2420   17.4424 N   0  0  0  0  0  0  0  0  0  0  0  0
    7.5283    4.6900   18.7393 C   0  0  0  0  0  0  0  0  0  0  0  0
    6.1726    5.0646   18.8715 C   0  0  0  0  0  0  0  0  0  0  0  0
    5.3628    5.2275   20.0941 N   0  0  0  0  0  0  0  0  0  0  0  0
    3.7486    5.3286   20.2835 C   0  0  0  0  0  0  0  0  0  0  0  0
    2.8808    5.3725   19.4703 O   0  0  0  0  0  0  0  0  0  0  0  0
    3.2456    5.2393   21.9962 C   0  0  0  0  0  0  0  0  0  0  0  0
    1.8190    5.0800   22.4859 O   0  0  0  0  0  0  0  0  0  0  0  0
    1.4938    4.3170   23.7092 C   0  0  0  0  0  0  0  0  0  0  0  0
   -0.0277    3.9543   23.6984 C   0  0  0  0  0  0  0  0  0  0  0  0
   -0.6533    3.5099   25.0387 C   0  0  0  0  0  0  0  0  0  0  0  0
    0.3612    3.1991   26.1242 C   0  0  0  0  0  0  0  0  0  0  0  0
    1.3545    4.3415   26.3081 C   0  0  0  0  0  0  0  0  0  0  0  0
    1.7470    5.0910   25.0139 C   0  0  0  0  0  0  0  0  0  0  0  0
    5.7298    4.7899   17.5332 C   0  0  0  0  0  0  0  0  0  0  0  0
    6.6407    4.2366   16.7213 N   0  0  0  0  0  0  0  0  0  0  0  0
   10.3080    4.7251   18.3529 H   0  0  0  0  0  0  0  0  0  0  0  0
   11.0861    4.6552   16.7628 H   0  0  0  0  0  0  0  0  0  0  0  0
    9.8717    5.8796   17.0948 H   0  0  0  0  0  0  0  0  0  0  0  0
    8.4482    1.8003   16.6014 H   0  0  0  0  0  0  0  0  0  0  0  0
    9.3252    2.1775   18.0811 H   0  0  0  0  0  0  0  0  0  0  0  0
   10.1763    2.0541   16.5167 H   0  0  0  0  0  0  0  0  0  0  0  0
    7.1065    4.4007   15.2388 H   0  0  0  0  0  0  0  0  0  0  0  0
    8.3371    4.6656   19.4486 H   0  0  0  0  0  0  0  0  0  0  0  0
    5.8052    5.1273   20.9957 H   0  0  0  0  0  0  0  0  0  0  0  0
    3.5835    6.1924   22.4187 H   0  0  0  0  0  0  0  0  0  0  0  0
    3.8362    4.4417   22.4539 H   0  0  0  0  0  0  0  0  0  0  0  0
    2.0859    3.3949   23.6921 H   0  0  0  0  0  0  0  0  0  0  0  0
   -0.5906    4.8227   23.3287 H   0  0  0  0  0  0  0  0  0  0  0  0
   -0.2032    3.1889   22.9359 H   0  0  0  0  0  0  0  0  0  0  0  0
   -1.3146    2.6528   24.8739 H   0  0  0  0  0  0  0  0  0  0  0  0
   -1.3025    4.3206   25.3954 H   0  0  0  0  0  0  0  0  0  0  0  0
   -0.1450    2.9850   27.0721 H   0  0  0  0  0  0  0  0  0  0  0  0
    0.9190    2.2990   25.8608 H   0  0  0  0  0  0  0  0  0  0  0  0
    2.2607    3.9433   26.7811 H   0  0  0  0  0  0  0  0  0  0  0  0
    0.9440    5.0728   27.0155 H   0  0  0  0  0  0  0  0  0  0  0  0
    2.8013    5.3886   25.0676 H   0  0  0  0  0  0  0  0  0  0  0  0
    1.1925    6.0383   24.9687 H   0  0  0  0  0  0  0  0  0  0  0  0
    4.7103    4.8790   17.1713 H   0  0  0  0  0  0  0  0  0  0  0  0
  1  2  1  0
  2  3  1  0
  2  4  1  0
  4  5  2  0
  4  6  1  0
  2  7  1  0
  7  8  1  0
  8  9  2  0
  9 10  1  0
 10 11  1  0
 11 12  2  0
 11 13  1  0
 13 14  1  0
 14 15  1  0
 15 16  1  0
 16 17  1  0
 17 18  1  0
 18 19  1  0
 19 20  1  0
  9 21  1  0
 21 22  2  0
 22  7  1  0
 20 15  1  0
  1 23  1  0
  1 24  1  0
  1 25  1  0
  3 26  1  0
  3 27  1  0
  3 28  1  0
  6 29  1  0
  8 30  1  0
 10 31  1  0
 13 32  1  0
 13 33  1  0
 15 34  1  0
 16 35  1  0
 16 36  1  0
 17 37  1  0
 17 38  1  0
 18 39  1  0
 18 40  1  0
 19 41  1  0
 19 42  1  0
 20 43  1  0
 20 44  1  0
 21 45  1  0
M  END
>  <Energy>  (624) 
102.64079650575937

>  <compound_id>  (624) 
51165

>  <target_id>  (624) 
1

>  <reference_id>  (624) 
44

>  <inspiration_ids>  (624) 
[122, 44]

>  <energy_score>  (624) 
20.54041539171135

>  <distance_score>  (624) 
6.903669227807186

>  <path>  (624) 
/opt/xchem-fragalysis-2/maxwin/BulkDock/SCRATCH/511025/C51165-P44/C51165-P44.minimised.mol

>  <scratch_subdir>  (624) 
/opt/xchem-fragalysis-2/maxwin/BulkDock/SCRATCH/511025/C51165-P44

>  <fragmenstein_runtime>  (624) 
18.730453968048096

>  <fragmenstein_outcome>  (624) 
too moved

>  <fragmenstein_mode>  (624) 
expansion

>  <fragmenstein_error>  (624) 


$$$$
C51166-P122
     RDKit          3D

 42 43  0  0  0  0  0  0  0  0999 V2000
   10.7619   -0.8346   15.0922 C   0  0  0  0  0  0  0  0  0  0  0  0
   10.8199    0.6915   15.2507 C   0  0  0  0  0  0  0  0  0  0  0  0
   12.1815    1.0074   15.9238 C   0  0  0  0  0  0  0  0  0  0  0  0
   10.8122    1.3332   13.8514 C   0  0  0  0  0  0  0  0  0  0  0  0
   10.0432    1.1049   12.9273 O   0  0  0  0  0  0  0  0  0  0  0  0
   11.7978    2.2357   13.6368 O   0  0  0  0  0  0  0  0  0  0  0  0
    9.6903    1.2027   16.0594 N   0  0  0  0  0  0  0  0  0  0  0  0
    8.7901    0.5311   16.8777 C   0  0  0  0  0  0  0  0  0  0  0  0
    8.2743    1.4471   17.7881 C   0  0  0  0  0  0  0  0  0  0  0  0
    7.3279    1.3831   19.0330 N   0  0  0  0  0  0  0  0  0  0  0  0
    6.9701    0.1398   20.0761 C   0  0  0  0  0  0  0  0  0  0  0  0
    7.4786   -0.9544   20.0957 O   0  0  0  0  0  0  0  0  0  0  0  0
    5.3833    0.2692   21.4517 C   0  0  0  0  0  0  0  0  0  0  0  0
    3.6987    1.0023   21.6863 O   0  0  0  0  0  0  0  0  0  0  0  0
    2.7523    2.3537   22.4156 C   0  0  0  0  0  0  0  0  0  0  0  0
    1.7162    3.0600   21.4865 C   0  0  0  0  0  0  0  0  0  0  0  0
    0.4864    3.3889   22.3346 C   0  0  0  0  0  0  0  0  0  0  0  0
    0.9428    3.3892   23.7938 C   0  0  0  0  0  0  0  0  0  0  0  0
    2.2286    2.5480   23.8929 C   0  0  0  0  0  0  0  0  0  0  0  0
    8.5891    2.6666   17.1005 C   0  0  0  0  0  0  0  0  0  0  0  0
    9.4723    2.5269   16.1080 N   0  0  0  0  0  0  0  0  0  0  0  0
   11.0336   -1.3509   16.0187 H   0  0  0  0  0  0  0  0  0  0  0  0
   11.4513   -1.1821   14.3144 H   0  0  0  0  0  0  0  0  0  0  0  0
    9.7529   -1.1676   14.8394 H   0  0  0  0  0  0  0  0  0  0  0  0
   13.0168    0.8527   15.2291 H   0  0  0  0  0  0  0  0  0  0  0  0
   12.2321    2.0424   16.2806 H   0  0  0  0  0  0  0  0  0  0  0  0
   12.3919    0.3485   16.7688 H   0  0  0  0  0  0  0  0  0  0  0  0
   11.6665    2.5691   12.7270 H   0  0  0  0  0  0  0  0  0  0  0  0
    8.5789   -0.5020   16.6951 H   0  0  0  0  0  0  0  0  0  0  0  0
    6.8348    2.1671   19.2922 H   0  0  0  0  0  0  0  0  0  0  0  0
    5.7856    0.9932   22.0184 H   0  0  0  0  0  0  0  0  0  0  0  0
    5.2629   -0.7167   21.9093 H   0  0  0  0  0  0  0  0  0  0  0  0
    3.3486    3.2757   22.4651 H   0  0  0  0  0  0  0  0  0  0  0  0
    1.5603    2.5975   20.5250 H   0  0  0  0  0  0  0  0  0  0  0  0
    2.1297    4.0371   21.1823 H   0  0  0  0  0  0  0  0  0  0  0  0
    0.0631    4.3606   22.0568 H   0  0  0  0  0  0  0  0  0  0  0  0
   -0.3142    2.6617   22.1859 H   0  0  0  0  0  0  0  0  0  0  0  0
    1.1547    4.4200   24.1039 H   0  0  0  0  0  0  0  0  0  0  0  0
    0.1615    3.0085   24.4594 H   0  0  0  0  0  0  0  0  0  0  0  0
    2.1630    1.6519   24.4899 H   0  0  0  0  0  0  0  0  0  0  0  0
    2.8965    3.1899   24.4829 H   0  0  0  0  0  0  0  0  0  0  0  0
    8.2392    3.6624   17.3366 H   0  0  0  0  0  0  0  0  0  0  0  0
  1  2  1  0
  2  3  1  0
  2  4  1  0
  4  5  2  0
  4  6  1  0
  2  7  1  0
  7  8  1  0
  8  9  2  0
  9 10  1  0
 10 11  1  0
 11 12  2  0
 11 13  1  0
 13 14  1  0
 14 15  1  0
 15 16  1  0
 16 17  1  0
 17 18  1  0
 18 19  1  0
  9 20  1  0
 20 21  2  0
 21  7  1  0
 19 15  1  0
  1 22  1  0
  1 23  1  0
  1 24  1  0
  3 25  1  0
  3 26  1  0
  3 27  1  0
  6 28  1  0
  8 29  1  0
 10 30  1  0
 13 31  1  0
 13 32  1  0
 15 33  1  0
 16 34  1  0
 16 35  1  0
 17 36  1  0
 17 37  1  0
 18 38  1  0
 18 39  1  0
 19 40  1  0
 19 41  1  0
 20 42  1  0
M  END
>  <Energy>  (625) 
363.15105483305501

>  <compound_id>  (625) 
51166

>  <target_id>  (625) 
1

>  <reference_id>  (625) 
122

>  <inspiration_ids>  (625) 
[122, 44]

>  <energy_score>  (625) 
262.4351489040496

>  <distance_score>  (625) 
6.1286183666393095

>  <path>  (625) 
/opt/xchem-fragalysis-2/maxwin/BulkDock/SCRATCH/511025/C51166-P122/C51166-P122.minimised.mol

>  <scratch_subdir>  (625) 
/opt/xchem-fragalysis-2/maxwin/BulkDock/SCRATCH/511025/C51166-P122

>  <fragmenstein_runtime>  (625) 
10.491127252578735

>  <fragmenstein_outcome>  (625) 
too moved

>  <fragmenstein_mode>  (625) 
expansion

>  <fragmenstein_error>  (625) 


$$$$
C51166-P44
     RDKit          3D

 42 43  0  0  0  0  0  0  0  0999 V2000
   10.4800    3.7413   14.7901 C   0  0  0  0  0  0  0  0  0  0  0  0
    9.8054    4.2838   16.0689 C   0  0  0  0  0  0  0  0  0  0  0  0
   10.7708    5.3249   16.6756 C   0  0  0  0  0  0  0  0  0  0  0  0
    8.5028    5.0136   15.7319 C   0  0  0  0  0  0  0  0  0  0  0  0
    7.9582    5.8645   16.4238 O   0  0  0  0  0  0  0  0  0  0  0  0
    7.9139    4.6496   14.5730 O   0  0  0  0  0  0  0  0  0  0  0  0
    9.4782    3.2184   17.0271 N   0  0  0  0  0  0  0  0  0  0  0  0
    8.9308    3.3964   18.2849 C   0  0  0  0  0  0  0  0  0  0  0  0
    8.4507    2.1742   18.6688 C   0  0  0  0  0  0  0  0  0  0  0  0
    7.4024    1.9603   19.5127 N   0  0  0  0  0  0  0  0  0  0  0  0
    6.6457    0.5226   20.0168 C   0  0  0  0  0  0  0  0  0  0  0  0
    7.0363   -0.5658   19.7298 O   0  0  0  0  0  0  0  0  0  0  0  0
    4.7999    0.8250   21.1008 C   0  0  0  0  0  0  0  0  0  0  0  0
    4.6148    1.6311   22.6081 O   0  0  0  0  0  0  0  0  0  0  0  0
    3.5104    2.4492   23.1545 C   0  0  0  0  0  0  0  0  0  0  0  0
    3.2541    2.0704   24.6241 C   0  0  0  0  0  0  0  0  0  0  0  0
    4.2951    2.8142   25.4359 C   0  0  0  0  0  0  0  0  0  0  0  0
    4.4668    4.1336   24.7143 C   0  0  0  0  0  0  0  0  0  0  0  0
    3.8445    3.9491   23.3301 C   0  0  0  0  0  0  0  0  0  0  0  0
    8.8350    1.3055   17.6241 C   0  0  0  0  0  0  0  0  0  0  0  0
    9.5343    1.9084   16.6610 N   0  0  0  0  0  0  0  0  0  0  0  0
   10.6775    4.5494   14.0757 H   0  0  0  0  0  0  0  0  0  0  0  0
    9.8565    3.0028   14.2737 H   0  0  0  0  0  0  0  0  0  0  0  0
   11.4361    3.2568   15.0209 H   0  0  0  0  0  0  0  0  0  0  0  0
   10.9084    6.1726   15.9931 H   0  0  0  0  0  0  0  0  0  0  0  0
   10.4004    5.7370   17.6207 H   0  0  0  0  0  0  0  0  0  0  0  0
   11.7597    4.8972   16.8674 H   0  0  0  0  0  0  0  0  0  0  0  0
    7.0471    5.1130   14.6029 H   0  0  0  0  0  0  0  0  0  0  0  0
    8.7801    4.3865   18.6892 H   0  0  0  0  0  0  0  0  0  0  0  0
    6.9362    2.7521   19.9574 H   0  0  0  0  0  0  0  0  0  0  0  0
    4.6436   -0.1984   21.5678 H   0  0  0  0  0  0  0  0  0  0  0  0
    3.7642    1.0388   20.9665 H   0  0  0  0  0  0  0  0  0  0  0  0
    2.6442    2.3681   22.5084 H   0  0  0  0  0  0  0  0  0  0  0  0
    2.2638    2.4287   24.9275 H   0  0  0  0  0  0  0  0  0  0  0  0
    3.3501    1.0039   24.8363 H   0  0  0  0  0  0  0  0  0  0  0  0
    3.9886    2.9484   26.4778 H   0  0  0  0  0  0  0  0  0  0  0  0
    5.2412    2.2614   25.4409 H   0  0  0  0  0  0  0  0  0  0  0  0
    3.9637    4.9463   25.2500 H   0  0  0  0  0  0  0  0  0  0  0  0
    5.5268    4.3993   24.6450 H   0  0  0  0  0  0  0  0  0  0  0  0
    4.4960    4.3633   22.5603 H   0  0  0  0  0  0  0  0  0  0  0  0
    2.9088    4.5226   23.2975 H   0  0  0  0  0  0  0  0  0  0  0  0
    8.5005    0.2976   17.4571 H   0  0  0  0  0  0  0  0  0  0  0  0
  1  2  1  0
  2  3  1  0
  2  4  1  0
  4  5  2  0
  4  6  1  0
  2  7  1  0
  7  8  1  0
  8  9  2  0
  9 10  1  0
 10 11  1  0
 11 12  2  0
 11 13  1  0
 13 14  1  0
 14 15  1  0
 15 16  1  0
 16 17  1  0
 17 18  1  0
 18 19  1  0
  9 20  1  0
 20 21  2  0
 21  7  1  0
 19 15  1  0
  1 22  1  0
  1 23  1  0
  1 24  1  0
  3 25  1  0
  3 26  1  0
  3 27  1  0
  6 28  1  0
  8 29  1  0
 10 30  1  0
 13 31  1  0
 13 32  1  0
 15 33  1  0
 16 34  1  0
 16 35  1  0
 17 36  1  0
 17 37  1  0
 18 38  1  0
 18 39  1  0
 19 40  1  0
 19 41  1  0
 20 42  1  0
M  END
>  <Energy>  (626) 
246.26120064138431

>  <compound_id>  (626) 
51166

>  <target_id>  (626) 
1

>  <reference_id>  (626) 
44

>  <inspiration_ids>  (626) 
[122, 44]

>  <energy_score>  (626) 
145.54529471239402

>  <distance_score>  (626) 
6.752020737706426

>  <path>  (626) 
/opt/xchem-fragalysis-2/maxwin/BulkDock/SCRATCH/511025/C51166-P44/C51166-P44.minimised.mol

>  <scratch_subdir>  (626) 
/opt/xchem-fragalysis-2/maxwin/BulkDock/SCRATCH/511025/C51166-P44

>  <fragmenstein_runtime>  (626) 
12.57081127166748

>  <fragmenstein_outcome>  (626) 
too moved

>  <fragmenstein_mode>  (626) 
expansion

>  <fragmenstein_error>  (626) 


$$$$
C51168-P122
     RDKit          3D

 45 46  0  0  0  0  0  0  0  0999 V2000
   10.1484    0.4220   16.5373 C   0  0  0  0  0  0  0  0  0  0  0  0
    8.6207    0.4853   17.0865 C   0  0  0  0  0  0  0  0  0  0  0  0
    8.1316   -0.4318   15.9413 C   0  0  0  0  0  0  0  0  0  0  0  0
    8.3566    2.0284   16.9000 C   0  0  0  0  0  0  0  0  0  0  0  0
    7.9069    2.8301   17.7009 O   0  0  0  0  0  0  0  0  0  0  0  0
    8.7742    2.5499   15.7160 O   0  0  0  0  0  0  0  0  0  0  0  0
    7.9451   -0.2642   18.3829 N   0  0  0  0  0  0  0  0  0  0  0  0
    7.6498   -0.4059   20.1251 C   0  0  0  0  0  0  0  0  0  0  0  0
    6.2221   -0.0215   20.5972 C   0  0  0  0  0  0  0  0  0  0  0  0
    4.9645    0.6450   21.8680 N   0  0  0  0  0  0  0  0  0  0  0  0
    3.2230    1.3579   21.7034 C   0  0  0  0  0  0  0  0  0  0  0  0
    2.4863    1.4614   20.7342 O   0  0  0  0  0  0  0  0  0  0  0  0
    2.5573    2.1723   23.2292 C   0  0  0  0  0  0  0  0  0  0  0  0
    1.2712    2.9473   23.8017 C   0  0  0  0  0  0  0  0  0  0  0  0
    0.4223    3.6912   22.7794 C   0  0  0  0  0  0  0  0  0  0  0  0
   -1.0506    3.7899   23.1948 C   0  0  0  0  0  0  0  0  0  0  0  0
   -1.4554    4.1322   24.6016 C   0  0  0  0  0  0  0  0  0  0  0  0
   -0.7747    4.2133   25.7543 C   0  0  0  0  0  0  0  0  0  0  0  0
    0.6708    3.9975   26.0754 C   0  0  0  0  0  0  0  0  0  0  0  0
    1.6865    3.9219   24.9346 C   0  0  0  0  0  0  0  0  0  0  0  0
    6.6977    0.4490   19.3587 C   0  0  0  0  0  0  0  0  0  0  0  0
    6.7070   -0.4646   18.3800 N   0  0  0  0  0  0  0  0  0  0  0  0
   10.7256   -0.4841   16.7254 H   0  0  0  0  0  0  0  0  0  0  0  0
   10.2081    0.4495   15.4368 H   0  0  0  0  0  0  0  0  0  0  0  0
   10.7029    1.3445   16.7611 H   0  0  0  0  0  0  0  0  0  0  0  0
    8.3705   -0.0298   14.9563 H   0  0  0  0  0  0  0  0  0  0  0  0
    8.6382   -1.4025   15.9491 H   0  0  0  0  0  0  0  0  0  0  0  0
    7.0857   -0.6615   16.0119 H   0  0  0  0  0  0  0  0  0  0  0  0
    9.1024    1.9429   15.0359 H   0  0  0  0  0  0  0  0  0  0  0  0
    8.5082   -0.2724   20.7150 H   0  0  0  0  0  0  0  0  0  0  0  0
    5.2724    0.7836   22.7165 H   0  0  0  0  0  0  0  0  0  0  0  0
    3.0540    3.1320   23.0640 H   0  0  0  0  0  0  0  0  0  0  0  0
    2.8351    1.5862   24.1060 H   0  0  0  0  0  0  0  0  0  0  0  0
    0.6392    2.2270   24.3235 H   0  0  0  0  0  0  0  0  0  0  0  0
    0.4630    3.1826   21.8098 H   0  0  0  0  0  0  0  0  0  0  0  0
    0.8217    4.6971   22.6008 H   0  0  0  0  0  0  0  0  0  0  0  0
   -1.5266    2.8299   22.9604 H   0  0  0  0  0  0  0  0  0  0  0  0
   -1.5254    4.5230   22.5297 H   0  0  0  0  0  0  0  0  0  0  0  0
   -2.5274    4.3416   24.6773 H   0  0  0  0  0  0  0  0  0  0  0  0
   -1.3681    4.4789   26.6334 H   0  0  0  0  0  0  0  0  0  0  0  0
    0.9892    4.8057   26.7464 H   0  0  0  0  0  0  0  0  0  0  0  0
    0.7392    3.0741   26.6654 H   0  0  0  0  0  0  0  0  0  0  0  0
    1.8714    4.9266   24.5345 H   0  0  0  0  0  0  0  0  0  0  0  0
    2.6368    3.5980   25.3777 H   0  0  0  0  0  0  0  0  0  0  0  0
    7.0839    1.4920   19.2230 H   0  0  0  0  0  0  0  0  0  0  0  0
  1  2  1  0
  2  3  1  0
  2  4  1  0
  4  5  2  0
  4  6  1  0
  2  7  1  0
  7  8  1  0
  8  9  2  0
  9 10  1  0
 10 11  1  0
 11 12  2  0
 11 13  1  0
 13 14  1  0
 14 15  1  0
 15 16  1  0
 16 17  1  0
 17 18  2  0
 18 19  1  0
 19 20  1  0
  9 21  1  0
 21 22  2  0
 22  7  1  0
 20 14  1  0
  1 23  1  0
  1 24  1  0
  1 25  1  0
  3 26  1  0
  3 27  1  0
  3 28  1  0
  6 29  1  0
  8 30  1  0
 10 31  1  0
 13 32  1  0
 13 33  1  0
 14 34  1  0
 15 35  1  0
 15 36  1  0
 16 37  1  0
 16 38  1  0
 17 39  1  0
 18 40  1  0
 19 41  1  0
 19 42  1  0
 20 43  1  0
 20 44  1  0
 21 45  1  0
M  END
>  <Energy>  (627) 
589.7835231591755

>  <compound_id>  (627) 
51168

>  <target_id>  (627) 
1

>  <reference_id>  (627) 
122

>  <inspiration_ids>  (627) 
[122, 44]

>  <energy_score>  (627) 
503.19812503980614

>  <distance_score>  (627) 
5.847689869115664

>  <path>  (627) 
/opt/xchem-fragalysis-2/maxwin/BulkDock/SCRATCH/511025/C51168-P122/C51168-P122.minimised.mol

>  <scratch_subdir>  (627) 
/opt/xchem-fragalysis-2/maxwin/BulkDock/SCRATCH/511025/C51168-P122

>  <fragmenstein_runtime>  (627) 
9.9833083152771

>  <fragmenstein_outcome>  (627) 
too moved

>  <fragmenstein_mode>  (627) 
expansion

>  <fragmenstein_error>  (627) 


$$$$
C51168-P44
     RDKit          3D

 45 46  0  0  0  0  0  0  0  0999 V2000
    9.2513    3.0866   15.0632 C   0  0  0  0  0  0  0  0  0  0  0  0
    8.6805    4.3616   15.7121 C   0  0  0  0  0  0  0  0  0  0  0  0
    7.7212    5.0993   14.7555 C   0  0  0  0  0  0  0  0  0  0  0  0
    9.8768    5.2943   15.9706 C   0  0  0  0  0  0  0  0  0  0  0  0
   10.1595    6.2500   15.2533 O   0  0  0  0  0  0  0  0  0  0  0  0
   10.6838    4.9702   17.0076 O   0  0  0  0  0  0  0  0  0  0  0  0
    8.0153    4.0278   16.9809 N   0  0  0  0  0  0  0  0  0  0  0  0
    6.8716    4.6193   17.5216 C   0  0  0  0  0  0  0  0  0  0  0  0
    6.8976    4.5511   18.9005 C   0  0  0  0  0  0  0  0  0  0  0  0
    5.9624    4.9663   20.0122 N   0  0  0  0  0  0  0  0  0  0  0  0
    4.3687    5.2757   19.9856 C   0  0  0  0  0  0  0  0  0  0  0  0
    3.6104    5.3191   19.0716 O   0  0  0  0  0  0  0  0  0  0  0  0
    3.7619    5.4482   21.6511 C   0  0  0  0  0  0  0  0  0  0  0  0
    2.6624    4.4623   22.6273 C   0  0  0  0  0  0  0  0  0  0  0  0
    1.1862    4.9735   22.7630 C   0  0  0  0  0  0  0  0  0  0  0  0
    0.1071    4.0875   23.4745 C   0  0  0  0  0  0  0  0  0  0  0  0
    0.1959    3.6821   24.9235 C   0  0  0  0  0  0  0  0  0  0  0  0
    1.2882    3.3034   25.5939 C   0  0  0  0  0  0  0  0  0  0  0  0
    2.6684    3.2223   25.0218 C   0  0  0  0  0  0  0  0  0  0  0  0
    3.1994    4.3505   24.1016 C   0  0  0  0  0  0  0  0  0  0  0  0
    8.0819    3.6558   19.0134 C   0  0  0  0  0  0  0  0  0  0  0  0
    8.7051    3.3105   17.8820 N   0  0  0  0  0  0  0  0  0  0  0  0
   10.1385    2.7194   15.5938 H   0  0  0  0  0  0  0  0  0  0  0  0
    8.5256    2.2682   15.0757 H   0  0  0  0  0  0  0  0  0  0  0  0
    9.5628    3.2694   14.0287 H   0  0  0  0  0  0  0  0  0  0  0  0
    8.1507    5.1940   13.7514 H   0  0  0  0  0  0  0  0  0  0  0  0
    6.7539    4.5953   14.6692 H   0  0  0  0  0  0  0  0  0  0  0  0
    7.5133    6.1184   15.1060 H   0  0  0  0  0  0  0  0  0  0  0  0
   10.4074    4.1585   17.5141 H   0  0  0  0  0  0  0  0  0  0  0  0
    6.1541    5.1150   16.8827 H   0  0  0  0  0  0  0  0  0  0  0  0
    6.2814    4.9280   20.9573 H   0  0  0  0  0  0  0  0  0  0  0  0
    4.6765    5.5265   22.2505 H   0  0  0  0  0  0  0  0  0  0  0  0
    3.3127    6.4507   21.6499 H   0  0  0  0  0  0  0  0  0  0  0  0
    2.6278    3.4710   22.1753 H   0  0  0  0  0  0  0  0  0  0  0  0
    0.8225    5.1638   21.7446 H   0  0  0  0  0  0  0  0  0  0  0  0
    1.2037    5.9527   23.2596 H   0  0  0  0  0  0  0  0  0  0  0  0
   -0.0746    3.1960   22.8697 H   0  0  0  0  0  0  0  0  0  0  0  0
   -0.8257    4.6645   23.3907 H   0  0  0  0  0  0  0  0  0  0  0  0
   -0.7551    3.6747   25.4579 H   0  0  0  0  0  0  0  0  0  0  0  0
    1.1785    3.0046   26.6352 H   0  0  0  0  0  0  0  0  0  0  0  0
    3.3523    3.1870   25.8813 H   0  0  0  0  0  0  0  0  0  0  0  0
    2.7956    2.2615   24.5123 H   0  0  0  0  0  0  0  0  0  0  0  0
    3.0819    5.3184   24.6058 H   0  0  0  0  0  0  0  0  0  0  0  0
    4.2825    4.1838   24.0257 H   0  0  0  0  0  0  0  0  0  0  0  0
    8.5018    3.2075   19.8902 H   0  0  0  0  0  0  0  0  0  0  0  0
  1  2  1  0
  2  3  1  0
  2  4  1  0
  4  5  2  0
  4  6  1  0
  2  7  1  0
  7  8  1  0
  8  9  2  0
  9 10  1  0
 10 11  1  0
 11 12  2  0
 11 13  1  0
 13 14  1  0
 14 15  1  0
 15 16  1  0
 16 17  1  0
 17 18  2  0
 18 19  1  0
 19 20  1  0
  9 21  1  0
 21 22  2  0
 22  7  1  0
 20 14  1  0
  1 23  1  0
  1 24  1  0
  1 25  1  0
  3 26  1  0
  3 27  1  0
  3 28  1  0
  6 29  1  0
  8 30  1  0
 10 31  1  0
 13 32  1  0
 13 33  1  0
 14 34  1  0
 15 35  1  0
 15 36  1  0
 16 37  1  0
 16 38  1  0
 17 39  1  0
 18 40  1  0
 19 41  1  0
 19 42  1  0
 20 43  1  0
 20 44  1  0
 21 45  1  0
M  END
>  <Energy>  (628) 
104.53740317487373

>  <compound_id>  (628) 
51168

>  <target_id>  (628) 
1

>  <reference_id>  (628) 
44

>  <inspiration_ids>  (628) 
[122, 44]

>  <energy_score>  (628) 
15.849388469617452

>  <distance_score>  (628) 
6.899131487479285

>  <path>  (628) 
/opt/xchem-fragalysis-2/maxwin/BulkDock/SCRATCH/511025/C51168-P44/C51168-P44.minimised.mol

>  <scratch_subdir>  (628) 
/opt/xchem-fragalysis-2/maxwin/BulkDock/SCRATCH/511025/C51168-P44

>  <fragmenstein_runtime>  (628) 
12.460554122924805

>  <fragmenstein_outcome>  (628) 
too moved

>  <fragmenstein_mode>  (628) 
expansion

>  <fragmenstein_error>  (628) 


$$$$
C8709-P122
     RDKit          3D

 40 41  0  0  0  0  0  0  0  0999 V2000
   14.7579   -5.7249   20.5253 C   0  0  0  0  0  0  0  0  0  0  0  0
   13.8921   -4.4920   20.2015 C   0  0  0  0  0  0  0  0  0  0  0  0
   14.7360   -3.5912   19.2647 C   0  0  0  0  0  0  0  0  0  0  0  0
   13.6422   -3.8040   21.5379 C   0  0  0  0  0  0  0  0  0  0  0  0
   13.1447   -4.3314   22.5241 O   0  0  0  0  0  0  0  0  0  0  0  0
   14.0263   -2.5123   21.5716 O   0  0  0  0  0  0  0  0  0  0  0  0
   12.5860   -4.8348   19.5847 N   0  0  0  0  0  0  0  0  0  0  0  0
   11.4652   -5.4659   20.2818 C   0  0  0  0  0  0  0  0  0  0  0  0
    9.9553   -5.4791   19.5472 C   0  0  0  0  0  0  0  0  0  0  0  0
    8.1767   -4.8201   19.9918 N   0  0  0  0  0  0  0  0  0  0  0  0
    7.6735   -3.7162   21.0024 C   0  0  0  0  0  0  0  0  0  0  0  0
    8.4153   -3.1569   21.5033 O   0  0  0  0  0  0  0  0  0  0  0  0
    5.8385   -2.9457   21.4536 C   0  0  0  0  0  0  0  0  0  0  0  0
    5.1047   -2.0360   22.9923 N   0  0  0  0  0  0  0  0  0  0  0  0
    3.6136   -2.4917   23.6363 C   0  0  0  0  0  0  0  0  0  0  0  0
    3.6469   -2.7034   25.1311 C   0  0  0  0  0  0  0  0  0  0  0  0
    4.6298   -1.7030   25.4976 C   0  0  0  0  0  0  0  0  0  0  0  0
    5.6353   -2.0963   24.4325 C   0  0  0  0  0  0  0  0  0  0  0  0
   11.0747   -4.9046   18.0176 C   0  0  0  0  0  0  0  0  0  0  0  0
   12.4144   -4.6563   18.2434 N   0  0  0  0  0  0  0  0  0  0  0  0
   15.1103   -6.2226   19.6172 H   0  0  0  0  0  0  0  0  0  0  0  0
   14.2221   -6.4597   21.1357 H   0  0  0  0  0  0  0  0  0  0  0  0
   15.6499   -5.4360   21.0955 H   0  0  0  0  0  0  0  0  0  0  0  0
   14.1988   -2.6776   18.9864 H   0  0  0  0  0  0  0  0  0  0  0  0
   15.0020   -4.1126   18.3374 H   0  0  0  0  0  0  0  0  0  0  0  0
   15.6746   -3.2860   19.7430 H   0  0  0  0  0  0  0  0  0  0  0  0
   13.3744   -2.0933   22.1932 H   0  0  0  0  0  0  0  0  0  0  0  0
   11.9424   -6.2804   20.8091 H   0  0  0  0  0  0  0  0  0  0  0  0
    7.3381   -5.3437   19.6543 H   0  0  0  0  0  0  0  0  0  0  0  0
    5.1464   -3.2170   20.6609 H   0  0  0  0  0  0  0  0  0  0  0  0
    6.0882   -1.9651   21.0964 H   0  0  0  0  0  0  0  0  0  0  0  0
    2.9865   -3.1342   23.0259 H   0  0  0  0  0  0  0  0  0  0  0  0
    2.9677   -1.6913   23.8173 H   0  0  0  0  0  0  0  0  0  0  0  0
    2.7959   -2.5391   25.7827 H   0  0  0  0  0  0  0  0  0  0  0  0
    3.9850   -3.6981   25.2460 H   0  0  0  0  0  0  0  0  0  0  0  0
    4.9853   -1.8053   26.5290 H   0  0  0  0  0  0  0  0  0  0  0  0
    4.2708   -0.6727   25.3904 H   0  0  0  0  0  0  0  0  0  0  0  0
    6.1476   -3.0360   24.3829 H   0  0  0  0  0  0  0  0  0  0  0  0
    6.4036   -1.5586   24.9620 H   0  0  0  0  0  0  0  0  0  0  0  0
   10.7757   -4.5790   17.0305 H   0  0  0  0  0  0  0  0  0  0  0  0
  1  2  1  0
  2  3  1  0
  2  4  1  0
  4  5  2  0
  4  6  1  0
  2  7  1  0
  7  8  1  0
  8  9  2  0
  9 10  1  0
 10 11  1  0
 11 12  2  0
 11 13  1  0
 13 14  1  0
 14 15  1  0
 15 16  1  0
 16 17  1  0
 17 18  1  0
  9 19  1  0
 19 20  2  0
 20  7  1  0
 18 14  1  0
  1 21  1  0
  1 22  1  0
  1 23  1  0
  3 24  1  0
  3 25  1  0
  3 26  1  0
  6 27  1  0
  8 28  1  0
 10 29  1  0
 13 30  1  0
 13 31  1  0
 15 32  1  0
 15 33  1  0
 16 34  1  0
 16 35  1  0
 17 36  1  0
 17 37  1  0
 18 38  1  0
 18 39  1  0
 19 40  1  0
M  END
>  <Energy>  (629) 
635.38275233216712

>  <compound_id>  (629) 
8709

>  <target_id>  (629) 
1

>  <reference_id>  (629) 
122

>  <inspiration_ids>  (629) 
[122, 44]

>  <energy_score>  (629) 
549.2633652009533

>  <distance_score>  (629) 
8.326199533966136

>  <path>  (629) 
/opt/xchem-fragalysis-2/maxwin/BulkDock/SCRATCH/511025/C8709-P122/C8709-P122.minimised.mol

>  <scratch_subdir>  (629) 
/opt/xchem-fragalysis-2/maxwin/BulkDock/SCRATCH/511025/C8709-P122

>  <fragmenstein_runtime>  (629) 
14.754494667053223

>  <fragmenstein_outcome>  (629) 
too moved

>  <fragmenstein_mode>  (629) 
expansion

>  <fragmenstein_error>  (629) 


$$$$
C8709-P44
     RDKit          3D

 40 41  0  0  0  0  0  0  0  0999 V2000
    9.1572   -1.6634   14.6782 C   0  0  0  0  0  0  0  0  0  0  0  0
   10.0529   -0.5055   15.0975 C   0  0  0  0  0  0  0  0  0  0  0  0
   11.3614   -1.1706   15.5919 C   0  0  0  0  0  0  0  0  0  0  0  0
   10.5018    0.4174   13.9673 C   0  0  0  0  0  0  0  0  0  0  0  0
   11.4951    0.2706   13.2623 O   0  0  0  0  0  0  0  0  0  0  0  0
    9.7750    1.5290   13.7716 O   0  0  0  0  0  0  0  0  0  0  0  0
    9.3087    0.2196   16.1331 N   0  0  0  0  0  0  0  0  0  0  0  0
    8.0739   -0.1005   16.6164 C   0  0  0  0  0  0  0  0  0  0  0  0
    8.0708    0.1917   17.9763 C   0  0  0  0  0  0  0  0  0  0  0  0
    7.0222    0.0445   18.9038 N   0  0  0  0  0  0  0  0  0  0  0  0
    6.6602    0.8159   20.0992 C   0  0  0  0  0  0  0  0  0  0  0  0
    7.3143    1.6838   20.5276 O   0  0  0  0  0  0  0  0  0  0  0  0
    4.7508    0.7359   21.2101 C   0  0  0  0  0  0  0  0  0  0  0  0
    4.3575    1.8806   22.7263 N   0  0  0  0  0  0  0  0  0  0  0  0
    4.3409    1.3552   24.2177 C   0  0  0  0  0  0  0  0  0  0  0  0
    4.0050    2.6021   25.0217 C   0  0  0  0  0  0  0  0  0  0  0  0
    2.8390    3.1643   24.2493 C   0  0  0  0  0  0  0  0  0  0  0  0
    3.2194    2.9132   22.7940 C   0  0  0  0  0  0  0  0  0  0  0  0
    9.0009    1.2690   17.9211 C   0  0  0  0  0  0  0  0  0  0  0  0
    9.8233    1.2067   16.8593 N   0  0  0  0  0  0  0  0  0  0  0  0
    8.2933   -1.3295   14.0931 H   0  0  0  0  0  0  0  0  0  0  0  0
    9.7627   -2.4234   14.1940 H   0  0  0  0  0  0  0  0  0  0  0  0
    8.6841   -2.1979   15.4861 H   0  0  0  0  0  0  0  0  0  0  0  0
   11.2122   -1.7598   16.4980 H   0  0  0  0  0  0  0  0  0  0  0  0
   11.7681   -1.8573   14.8369 H   0  0  0  0  0  0  0  0  0  0  0  0
   12.1567   -0.4359   15.7532 H   0  0  0  0  0  0  0  0  0  0  0  0
   10.3587    2.0544   13.1879 H   0  0  0  0  0  0  0  0  0  0  0  0
    7.3291   -0.5911   16.0071 H   0  0  0  0  0  0  0  0  0  0  0  0
    6.3438   -0.6912   18.7958 H   0  0  0  0  0  0  0  0  0  0  0  0
    4.8164    0.3557   22.3180 H   0  0  0  0  0  0  0  0  0  0  0  0
    4.6208   -0.3479   21.4331 H   0  0  0  0  0  0  0  0  0  0  0  0
    5.2627    0.8883   24.5752 H   0  0  0  0  0  0  0  0  0  0  0  0
    3.5573    0.6485   24.5019 H   0  0  0  0  0  0  0  0  0  0  0  0
    3.7391    2.3725   26.0578 H   0  0  0  0  0  0  0  0  0  0  0  0
    4.8491    3.3018   25.0264 H   0  0  0  0  0  0  0  0  0  0  0  0
    2.6888    4.2275   24.4624 H   0  0  0  0  0  0  0  0  0  0  0  0
    1.9144    2.6432   24.5051 H   0  0  0  0  0  0  0  0  0  0  0  0
    2.3692    2.6726   22.1618 H   0  0  0  0  0  0  0  0  0  0  0  0
    3.6014    3.8929   22.4661 H   0  0  0  0  0  0  0  0  0  0  0  0
    9.1177    2.0843   18.6277 H   0  0  0  0  0  0  0  0  0  0  0  0
  1  2  1  0
  2  3  1  0
  2  4  1  0
  4  5  2  0
  4  6  1  0
  2  7  1  0
  7  8  1  0
  8  9  2  0
  9 10  1  0
 10 11  1  0
 11 12  2  0
 11 13  1  0
 13 14  1  0
 14 15  1  0
 15 16  1  0
 16 17  1  0
 17 18  1  0
  9 19  1  0
 19 20  2  0
 20  7  1  0
 18 14  1  0
  1 21  1  0
  1 22  1  0
  1 23  1  0
  3 24  1  0
  3 25  1  0
  3 26  1  0
  6 27  1  0
  8 28  1  0
 10 29  1  0
 13 30  1  0
 13 31  1  0
 15 32  1  0
 15 33  1  0
 16 34  1  0
 16 35  1  0
 17 36  1  0
 17 37  1  0
 18 38  1  0
 18 39  1  0
 19 40  1  0
M  END
>  <Energy>  (630) 
388.17133830036909

>  <compound_id>  (630) 
8709

>  <target_id>  (630) 
1

>  <reference_id>  (630) 
44

>  <inspiration_ids>  (630) 
[122, 44]

>  <energy_score>  (630) 
302.05195116917315

>  <distance_score>  (630) 
7.062713373880977

>  <path>  (630) 
/opt/xchem-fragalysis-2/maxwin/BulkDock/SCRATCH/511025/C8709-P44/C8709-P44.minimised.mol

>  <scratch_subdir>  (630) 
/opt/xchem-fragalysis-2/maxwin/BulkDock/SCRATCH/511025/C8709-P44

>  <fragmenstein_runtime>  (630) 
17.626060962677002

>  <fragmenstein_outcome>  (630) 
too moved

>  <fragmenstein_mode>  (630) 
expansion

>  <fragmenstein_error>  (630) 


$$$$
C51170-P122
     RDKit          3D

 39 40  0  0  0  0  0  0  0  0999 V2000
   10.8638   -0.5955   15.6023 C   0  0  0  0  0  0  0  0  0  0  0  0
    9.7554   -0.0457   16.1050 C   0  0  0  0  0  0  0  0  0  0  0  0
    8.3142   -0.4738   16.1576 C   0  0  0  0  0  0  0  0  0  0  0  0
    8.2537    0.3789   17.5577 C   0  0  0  0  0  0  0  0  0  0  0  0
    7.5198   -0.4153   19.1052 C   0  0  0  0  0  0  0  0  0  0  0  0
    6.9303    0.3794   20.3040 C   0  0  0  0  0  0  0  0  0  0  0  0
    7.4100    1.4998   20.3356 O   0  0  0  0  0  0  0  0  0  0  0  0
    5.5622   -0.2143   21.4124 N   0  0  0  0  0  0  0  0  0  0  0  0
    4.5824    0.6270   22.5828 C   0  0  0  0  0  0  0  0  0  0  0  0
    3.0459    1.7380   22.6925 C   0  0  0  0  0  0  0  0  0  0  0  0
    2.5186    1.9883   23.9840 N   0  0  0  0  0  0  0  0  0  0  0  0
    3.0934    1.0447   24.9164 N   0  0  0  0  0  0  0  0  0  0  0  0
    2.8364    1.1708   26.3916 C   0  0  0  0  0  0  0  0  0  0  0  0
    4.0030    1.8949   27.0978 C   0  0  0  0  0  0  0  0  0  0  0  0
    1.5676    2.0020   26.7281 C   0  0  0  0  0  0  0  0  0  0  0  0
    2.7630   -0.2223   27.0389 C   0  0  0  0  0  0  0  0  0  0  0  0
    3.7022   -0.9785   27.2530 O   0  0  0  0  0  0  0  0  0  0  0  0
    1.5211   -0.6123   27.3978 O   0  0  0  0  0  0  0  0  0  0  0  0
    4.1665    0.2078   24.3767 C   0  0  0  0  0  0  0  0  0  0  0  0
    9.4259    1.2393   16.7899 C   0  0  0  0  0  0  0  0  0  0  0  0
   11.8132   -0.0742   15.6532 H   0  0  0  0  0  0  0  0  0  0  0  0
   10.8200   -1.5523   15.0901 H   0  0  0  0  0  0  0  0  0  0  0  0
    7.7541   -0.1207   15.3209 H   0  0  0  0  0  0  0  0  0  0  0  0
    8.1813   -1.5469   16.1004 H   0  0  0  0  0  0  0  0  0  0  0  0
    7.8193    1.3540   17.7752 H   0  0  0  0  0  0  0  0  0  0  0  0
    8.2748   -1.0513   19.4123 H   0  0  0  0  0  0  0  0  0  0  0  0
    6.6425   -0.7505   18.5855 H   0  0  0  0  0  0  0  0  0  0  0  0
    5.4069   -1.1923   21.2544 H   0  0  0  0  0  0  0  0  0  0  0  0
    2.5392    2.1309   21.8141 H   0  0  0  0  0  0  0  0  0  0  0  0
    4.1077    2.9263   26.7416 H   0  0  0  0  0  0  0  0  0  0  0  0
    3.8522    1.9298   28.1836 H   0  0  0  0  0  0  0  0  0  0  0  0
    4.9611    1.3901   26.9253 H   0  0  0  0  0  0  0  0  0  0  0  0
    1.4137    2.0588   27.8127 H   0  0  0  0  0  0  0  0  0  0  0  0
    0.6502    1.5898   26.3032 H   0  0  0  0  0  0  0  0  0  0  0  0
    1.6601    3.0295   26.3570 H   0  0  0  0  0  0  0  0  0  0  0  0
    1.6166   -1.5686   27.5991 H   0  0  0  0  0  0  0  0  0  0  0  0
    4.5156   -0.6504   24.9486 H   0  0  0  0  0  0  0  0  0  0  0  0
   10.1850    1.8001   17.3174 H   0  0  0  0  0  0  0  0  0  0  0  0
    9.0032    1.9979   16.1075 H   0  0  0  0  0  0  0  0  0  0  0  0
  1  2  2  0
  2  3  1  0
  3  4  1  0
  4  5  1  0
  5  6  1  0
  6  7  2  0
  6  8  1  0
  8  9  1  0
  9 10  1  0
 10 11  2  0
 11 12  1  0
 12 13  1  0
 13 14  1  0
 13 15  1  0
 13 16  1  0
 16 17  2  0
 16 18  1  0
 12 19  1  0
  4 20  1  0
 20  2  1  0
 19  9  2  0
  1 21  1  0
  1 22  1  0
  3 23  1  0
  3 24  1  0
  4 25  1  0
  5 26  1  0
  5 27  1  0
  8 28  1  0
 10 29  1  0
 14 30  1  0
 14 31  1  0
 14 32  1  0
 15 33  1  0
 15 34  1  0
 15 35  1  0
 18 36  1  0
 19 37  1  0
 20 38  1  0
 20 39  1  0
M  END
>  <Energy>  (631) 
395.66304177879846

>  <compound_id>  (631) 
51170

>  <target_id>  (631) 
1

>  <reference_id>  (631) 
122

>  <inspiration_ids>  (631) 
[122, 44]

>  <energy_score>  (631) 
343.703890240998

>  <distance_score>  (631) 
5.512507075174906

>  <path>  (631) 
/opt/xchem-fragalysis-2/maxwin/BulkDock/SCRATCH/511025/C51170-P122/C51170-P122.minimised.mol

>  <scratch_subdir>  (631) 
/opt/xchem-fragalysis-2/maxwin/BulkDock/SCRATCH/511025/C51170-P122

>  <fragmenstein_runtime>  (631) 
28.360211849212646

>  <fragmenstein_outcome>  (631) 
too moved

>  <fragmenstein_mode>  (631) 
expansion

>  <fragmenstein_error>  (631) 


$$$$
C51170-P44
     RDKit          3D

 39 40  0  0  0  0  0  0  0  0999 V2000
   10.0961   -0.6762   15.6034 C   0  0  0  0  0  0  0  0  0  0  0  0
    9.2391    0.0464   16.3305 C   0  0  0  0  0  0  0  0  0  0  0  0
    7.7357    0.0695   16.3953 C   0  0  0  0  0  0  0  0  0  0  0  0
    8.0094    0.5974   17.9577 C   0  0  0  0  0  0  0  0  0  0  0  0
    7.6171    0.0285   19.7345 C   0  0  0  0  0  0  0  0  0  0  0  0
    6.0617    0.4173   19.9304 C   0  0  0  0  0  0  0  0  0  0  0  0
    5.6373    0.6481   18.8760 O   0  0  0  0  0  0  0  0  0  0  0  0
    4.6449    0.8414   21.3662 N   0  0  0  0  0  0  0  0  0  0  0  0
    2.9771    1.6080   21.3058 C   0  0  0  0  0  0  0  0  0  0  0  0
    2.0352    2.6066   20.6334 C   0  0  0  0  0  0  0  0  0  0  0  0
    1.4102    3.5081   21.4362 N   0  0  0  0  0  0  0  0  0  0  0  0
    1.9774    3.3400   22.6476 N   0  0  0  0  0  0  0  0  0  0  0  0
    1.5215    4.1539   23.7888 C   0  0  0  0  0  0  0  0  0  0  0  0
    0.0044    3.9848   24.0232 C   0  0  0  0  0  0  0  0  0  0  0  0
    2.2001    3.7500   25.1245 C   0  0  0  0  0  0  0  0  0  0  0  0
    1.7991    5.6358   23.5027 C   0  0  0  0  0  0  0  0  0  0  0  0
    2.1424    6.4393   24.3635 O   0  0  0  0  0  0  0  0  0  0  0  0
    1.5842    6.0397   22.2251 O   0  0  0  0  0  0  0  0  0  0  0  0
    2.8853    2.3279   22.6479 C   0  0  0  0  0  0  0  0  0  0  0  0
    9.2914    1.2201   17.2793 C   0  0  0  0  0  0  0  0  0  0  0  0
    9.7214   -1.4395   14.9269 H   0  0  0  0  0  0  0  0  0  0  0  0
   11.1613   -0.4840   15.6013 H   0  0  0  0  0  0  0  0  0  0  0  0
    7.3378    0.8099   15.6835 H   0  0  0  0  0  0  0  0  0  0  0  0
    7.2026   -0.8424   16.1642 H   0  0  0  0  0  0  0  0  0  0  0  0
    7.5698    1.5925   18.1725 H   0  0  0  0  0  0  0  0  0  0  0  0
    8.6827    0.1841   19.8880 H   0  0  0  0  0  0  0  0  0  0  0  0
    7.7181    1.1496   19.9616 H   0  0  0  0  0  0  0  0  0  0  0  0
    5.0013    0.5450   22.2926 H   0  0  0  0  0  0  0  0  0  0  0  0
    1.8278    2.7511   19.5879 H   0  0  0  0  0  0  0  0  0  0  0  0
   -0.2546    2.9483   24.2560 H   0  0  0  0  0  0  0  0  0  0  0  0
   -0.3417    4.6151   24.8509 H   0  0  0  0  0  0  0  0  0  0  0  0
   -0.5746    4.2784   23.1398 H   0  0  0  0  0  0  0  0  0  0  0  0
    1.8268    4.3547   25.9598 H   0  0  0  0  0  0  0  0  0  0  0  0
    3.2842    3.9084   25.0794 H   0  0  0  0  0  0  0  0  0  0  0  0
    2.0196    2.6997   25.3737 H   0  0  0  0  0  0  0  0  0  0  0  0
    1.3836    5.2844   21.6108 H   0  0  0  0  0  0  0  0  0  0  0  0
    3.5180    2.1536   23.5082 H   0  0  0  0  0  0  0  0  0  0  0  0
   10.1136    1.3941   17.9164 H   0  0  0  0  0  0  0  0  0  0  0  0
    9.1104    2.1921   16.7924 H   0  0  0  0  0  0  0  0  0  0  0  0
  1  2  2  0
  2  3  1  0
  3  4  1  0
  4  5  1  0
  5  6  1  0
  6  7  2  0
  6  8  1  0
  8  9  1  0
  9 10  1  0
 10 11  2  0
 11 12  1  0
 12 13  1  0
 13 14  1  0
 13 15  1  0
 13 16  1  0
 16 17  2  0
 16 18  1  0
 12 19  1  0
  4 20  1  0
 20  2  1  0
 19  9  2  0
  1 21  1  0
  1 22  1  0
  3 23  1  0
  3 24  1  0
  4 25  1  0
  5 26  1  0
  5 27  1  0
  8 28  1  0
 10 29  1  0
 14 30  1  0
 14 31  1  0
 14 32  1  0
 15 33  1  0
 15 34  1  0
 15 35  1  0
 18 36  1  0
 19 37  1  0
 20 38  1  0
 20 39  1  0
M  END
>  <Energy>  (632) 
473.54534872467065

>  <compound_id>  (632) 
51170

>  <target_id>  (632) 
1

>  <reference_id>  (632) 
44

>  <inspiration_ids>  (632) 
[122, 44]

>  <energy_score>  (632) 
421.58619718687225

>  <distance_score>  (632) 
6.646078776970524

>  <path>  (632) 
/opt/xchem-fragalysis-2/maxwin/BulkDock/SCRATCH/511025/C51170-P44/C51170-P44.minimised.mol

>  <scratch_subdir>  (632) 
/opt/xchem-fragalysis-2/maxwin/BulkDock/SCRATCH/511025/C51170-P44

>  <fragmenstein_runtime>  (632) 
42.277304887771606

>  <fragmenstein_outcome>  (632) 
too moved

>  <fragmenstein_mode>  (632) 
expansion

>  <fragmenstein_error>  (632) 


$$$$
C51171-P122
     RDKit          3D

 39 40  0  0  0  0  0  0  0  0999 V2000
   11.5411    2.6061   16.1186 C   0  0  0  0  0  0  0  0  0  0  0  0
   10.0623    2.4189   15.6802 C   0  0  0  0  0  0  0  0  0  0  0  0
    9.6770    0.9422   15.8855 C   0  0  0  0  0  0  0  0  0  0  0  0
   10.0651    2.8045   14.1957 C   0  0  0  0  0  0  0  0  0  0  0  0
    9.5478    3.7991   13.7045 O   0  0  0  0  0  0  0  0  0  0  0  0
   10.6601    1.9020   13.3642 O   0  0  0  0  0  0  0  0  0  0  0  0
    9.1423    3.2907   16.4443 N   0  0  0  0  0  0  0  0  0  0  0  0
    7.7694    3.2679   16.6607 C   0  0  0  0  0  0  0  0  0  0  0  0
    7.4031    4.2603   17.5985 C   0  0  0  0  0  0  0  0  0  0  0  0
    6.1022    4.5260   18.1963 N   0  0  0  0  0  0  0  0  0  0  0  0
    5.7165    5.2306   19.6194 C   0  0  0  0  0  0  0  0  0  0  0  0
    6.4125    5.7472   20.4337 O   0  0  0  0  0  0  0  0  0  0  0  0
    4.0352    5.1209   19.9110 C   0  0  0  0  0  0  0  0  0  0  0  0
    3.1275    5.3224   21.3667 C   0  0  0  0  0  0  0  0  0  0  0  0
    3.4489    4.8850   22.7923 C   0  0  0  0  0  0  0  0  0  0  0  0
    2.4033    4.3948   23.4911 C   0  0  0  0  0  0  0  0  0  0  0  0
    1.1500    4.3984   22.6931 C   0  0  0  0  0  0  0  0  0  0  0  0
    1.6918    4.6662   21.2731 C   0  0  0  0  0  0  0  0  0  0  0  0
    8.6705    4.8709   17.7791 C   0  0  0  0  0  0  0  0  0  0  0  0
    9.6757    4.3305   17.0812 N   0  0  0  0  0  0  0  0  0  0  0  0
   11.6818    2.4279   17.1853 H   0  0  0  0  0  0  0  0  0  0  0  0
   11.9018    3.6191   15.9001 H   0  0  0  0  0  0  0  0  0  0  0  0
   12.2100    1.9191   15.5866 H   0  0  0  0  0  0  0  0  0  0  0  0
   10.5432    0.2775   15.7865 H   0  0  0  0  0  0  0  0  0  0  0  0
    9.2426    0.7670   16.8735 H   0  0  0  0  0  0  0  0  0  0  0  0
    8.9553    0.5971   15.1455 H   0  0  0  0  0  0  0  0  0  0  0  0
   11.0870    1.1291   13.7858 H   0  0  0  0  0  0  0  0  0  0  0  0
    7.1781    2.5275   16.1677 H   0  0  0  0  0  0  0  0  0  0  0  0
    5.2756    4.1118   17.7857 H   0  0  0  0  0  0  0  0  0  0  0  0
    3.6808    4.2086   19.4326 H   0  0  0  0  0  0  0  0  0  0  0  0
    3.6424    5.9222   19.2658 H   0  0  0  0  0  0  0  0  0  0  0  0
    3.0041    6.4137   21.4270 H   0  0  0  0  0  0  0  0  0  0  0  0
    4.4333    5.0543   23.2112 H   0  0  0  0  0  0  0  0  0  0  0  0
    2.4502    4.0915   24.5278 H   0  0  0  0  0  0  0  0  0  0  0  0
    0.4853    5.2019   23.0252 H   0  0  0  0  0  0  0  0  0  0  0  0
    0.6163    3.4470   22.7403 H   0  0  0  0  0  0  0  0  0  0  0  0
    1.7644    3.7120   20.7345 H   0  0  0  0  0  0  0  0  0  0  0  0
    1.0090    5.3038   20.7009 H   0  0  0  0  0  0  0  0  0  0  0  0
    8.8953    5.7295   18.4005 H   0  0  0  0  0  0  0  0  0  0  0  0
  1  2  1  0
  2  3  1  0
  2  4  1  0
  4  5  2  0
  4  6  1  0
  2  7  1  0
  7  8  1  0
  8  9  2  0
  9 10  1  0
 10 11  1  0
 11 12  2  0
 11 13  1  0
 13 14  1  0
 14 15  1  0
 15 16  2  0
 16 17  1  0
 17 18  1  0
  9 19  1  0
 19 20  2  0
 20  7  1  0
 18 14  1  0
  1 21  1  0
  1 22  1  0
  1 23  1  0
  3 24  1  0
  3 25  1  0
  3 26  1  0
  6 27  1  0
  8 28  1  0
 10 29  1  0
 13 30  1  0
 13 31  1  0
 14 32  1  0
 15 33  1  0
 16 34  1  0
 17 35  1  0
 17 36  1  0
 18 37  1  0
 18 38  1  0
 19 39  1  0
M  END
>  <Energy>  (633) 
88.921298744658387

>  <compound_id>  (633) 
51171

>  <target_id>  (633) 
1

>  <reference_id>  (633) 
122

>  <inspiration_ids>  (633) 
[122, 44]

>  <energy_score>  (633) 
40.579563965260604

>  <distance_score>  (633) 
7.292799715424136

>  <path>  (633) 
/opt/xchem-fragalysis-2/maxwin/BulkDock/SCRATCH/511025/C51171-P122/C51171-P122.minimised.mol

>  <scratch_subdir>  (633) 
/opt/xchem-fragalysis-2/maxwin/BulkDock/SCRATCH/511025/C51171-P122

>  <fragmenstein_runtime>  (633) 
10.98258352279663

>  <fragmenstein_outcome>  (633) 
too moved

>  <fragmenstein_mode>  (633) 
expansion

>  <fragmenstein_error>  (633) 


$$$$
C51171-P44
     RDKit          3D

 39 40  0  0  0  0  0  0  0  0999 V2000
    9.7345    2.6386   15.3538 C   0  0  0  0  0  0  0  0  0  0  0  0
    9.2763    4.0518   15.7557 C   0  0  0  0  0  0  0  0  0  0  0  0
    8.3931    4.6152   14.6183 C   0  0  0  0  0  0  0  0  0  0  0  0
   10.5074    4.9512   15.8660 C   0  0  0  0  0  0  0  0  0  0  0  0
   10.8814    5.6865   14.9559 O   0  0  0  0  0  0  0  0  0  0  0  0
   11.2241    4.8719   17.0036 O   0  0  0  0  0  0  0  0  0  0  0  0
    8.5336    4.0408   17.0230 N   0  0  0  0  0  0  0  0  0  0  0  0
    7.4892    4.8815   17.3853 C   0  0  0  0  0  0  0  0  0  0  0  0
    7.1490    4.7297   18.7265 C   0  0  0  0  0  0  0  0  0  0  0  0
    5.8544    5.1159   19.3326 N   0  0  0  0  0  0  0  0  0  0  0  0
    5.5120    5.6592   20.8219 C   0  0  0  0  0  0  0  0  0  0  0  0
    6.2354    5.9399   21.7222 O   0  0  0  0  0  0  0  0  0  0  0  0
    3.8749    5.6930   21.0624 C   0  0  0  0  0  0  0  0  0  0  0  0
    3.1714    5.4337   22.5783 C   0  0  0  0  0  0  0  0  0  0  0  0
    3.3309    4.1632   23.4105 C   0  0  0  0  0  0  0  0  0  0  0  0
    2.2123    3.7462   24.0329 C   0  0  0  0  0  0  0  0  0  0  0  0
    1.0524    4.6239   23.7254 C   0  0  0  0  0  0  0  0  0  0  0  0
    1.5992    5.4601   22.5455 C   0  0  0  0  0  0  0  0  0  0  0  0
    8.0069    3.5455   18.9797 C   0  0  0  0  0  0  0  0  0  0  0  0
    8.8697    3.1931   18.0095 N   0  0  0  0  0  0  0  0  0  0  0  0
    8.8904    1.9421   15.3175 H   0  0  0  0  0  0  0  0  0  0  0  0
   10.4637    2.2269   16.0570 H   0  0  0  0  0  0  0  0  0  0  0  0
   10.2186    2.6419   14.3702 H   0  0  0  0  0  0  0  0  0  0  0  0
    7.4042    4.1487   14.6158 H   0  0  0  0  0  0  0  0  0  0  0  0
    8.2409    5.6971   14.7182 H   0  0  0  0  0  0  0  0  0  0  0  0
    8.8520    4.4569   13.6353 H   0  0  0  0  0  0  0  0  0  0  0  0
   10.9612    4.1480   17.6379 H   0  0  0  0  0  0  0  0  0  0  0  0
    7.0440    5.5440   16.6580 H   0  0  0  0  0  0  0  0  0  0  0  0
    5.0036    5.0561   18.7878 H   0  0  0  0  0  0  0  0  0  0  0  0
    3.4142    4.9890   20.3633 H   0  0  0  0  0  0  0  0  0  0  0  0
    3.5634    6.6984   20.7513 H   0  0  0  0  0  0  0  0  0  0  0  0
    3.5372    6.2610   23.2015 H   0  0  0  0  0  0  0  0  0  0  0  0
    4.2956    3.6896   23.5379 H   0  0  0  0  0  0  0  0  0  0  0  0
    2.1737    2.9028   24.7069 H   0  0  0  0  0  0  0  0  0  0  0  0
    0.8070    5.2553   24.5847 H   0  0  0  0  0  0  0  0  0  0  0  0
    0.1684    4.0536   23.4273 H   0  0  0  0  0  0  0  0  0  0  0  0
    1.2502    5.0193   21.6019 H   0  0  0  0  0  0  0  0  0  0  0  0
    1.2227    6.4883   22.5775 H   0  0  0  0  0  0  0  0  0  0  0  0
    7.9263    2.8517   19.7923 H   0  0  0  0  0  0  0  0  0  0  0  0
  1  2  1  0
  2  3  1  0
  2  4  1  0
  4  5  2  0
  4  6  1  0
  2  7  1  0
  7  8  1  0
  8  9  2  0
  9 10  1  0
 10 11  1  0
 11 12  2  0
 11 13  1  0
 13 14  1  0
 14 15  1  0
 15 16  2  0
 16 17  1  0
 17 18  1  0
  9 19  1  0
 19 20  2  0
 20  7  1  0
 18 14  1  0
  1 21  1  0
  1 22  1  0
  1 23  1  0
  3 24  1  0
  3 25  1  0
  3 26  1  0
  6 27  1  0
  8 28  1  0
 10 29  1  0
 13 30  1  0
 13 31  1  0
 14 32  1  0
 15 33  1  0
 16 34  1  0
 17 35  1  0
 17 36  1  0
 18 37  1  0
 18 38  1  0
 19 39  1  0
M  END
>  <Energy>  (634) 
81.057040653548071

>  <compound_id>  (634) 
51171

>  <target_id>  (634) 
1

>  <reference_id>  (634) 
44

>  <inspiration_ids>  (634) 
[122, 44]

>  <energy_score>  (634) 
32.715305874152534

>  <distance_score>  (634) 
7.284757241700563

>  <path>  (634) 
/opt/xchem-fragalysis-2/maxwin/BulkDock/SCRATCH/511025/C51171-P44/C51171-P44.minimised.mol

>  <scratch_subdir>  (634) 
/opt/xchem-fragalysis-2/maxwin/BulkDock/SCRATCH/511025/C51171-P44

>  <fragmenstein_runtime>  (634) 
9.578702449798584

>  <fragmenstein_outcome>  (634) 
too moved

>  <fragmenstein_mode>  (634) 
expansion

>  <fragmenstein_error>  (634) 


$$$$
C51173-P122
     RDKit          3D

 42 43  0  0  0  0  0  0  0  0999 V2000
   12.0684    2.1255   16.0771 C   0  0  0  0  0  0  0  0  0  0  0  0
   10.6403    1.9093   15.5102 C   0  0  0  0  0  0  0  0  0  0  0  0
   10.7127    2.0754   13.9774 C   0  0  0  0  0  0  0  0  0  0  0  0
   10.2256    0.4639   15.8466 C   0  0  0  0  0  0  0  0  0  0  0  0
    9.3474    0.1117   16.6248 O   0  0  0  0  0  0  0  0  0  0  0  0
   10.9641   -0.5022   15.2452 O   0  0  0  0  0  0  0  0  0  0  0  0
    9.7204    2.9243   16.0827 N   0  0  0  0  0  0  0  0  0  0  0  0
    8.3780    2.8685   16.3797 C   0  0  0  0  0  0  0  0  0  0  0  0
    8.0472    4.0383   17.0401 C   0  0  0  0  0  0  0  0  0  0  0  0
    6.8265    4.3527   17.6143 N   0  0  0  0  0  0  0  0  0  0  0  0
    6.4599    5.3899   18.5792 C   0  0  0  0  0  0  0  0  0  0  0  0
    7.1409    6.1795   19.1761 O   0  0  0  0  0  0  0  0  0  0  0  0
    4.9028    5.4844   18.7702 C   0  0  0  0  0  0  0  0  0  0  0  0
    4.3695    5.4597   20.2430 C   0  0  0  0  0  0  0  0  0  0  0  0
    2.8706    5.0353   20.2845 C   0  0  0  0  0  0  0  0  0  0  0  0
    2.2673    5.0457   21.6649 C   0  0  0  0  0  0  0  0  0  0  0  0
    2.8185    5.7180   22.6846 C   0  0  0  0  0  0  0  0  0  0  0  0
    4.0584    6.5505   22.5187 C   0  0  0  0  0  0  0  0  0  0  0  0
    4.4920    6.7638   21.0486 C   0  0  0  0  0  0  0  0  0  0  0  0
    9.2401    4.7846   16.9846 C   0  0  0  0  0  0  0  0  0  0  0  0
   10.2071    4.1687   16.2939 N   0  0  0  0  0  0  0  0  0  0  0  0
   12.7460    1.3067   15.8116 H   0  0  0  0  0  0  0  0  0  0  0  0
   12.5172    3.0491   15.6912 H   0  0  0  0  0  0  0  0  0  0  0  0
   12.0665    2.2024   17.1680 H   0  0  0  0  0  0  0  0  0  0  0  0
   10.5409    3.1100   13.6611 H   0  0  0  0  0  0  0  0  0  0  0  0
    9.9904    1.4346   13.4660 H   0  0  0  0  0  0  0  0  0  0  0  0
   11.6944    1.7782   13.5884 H   0  0  0  0  0  0  0  0  0  0  0  0
   11.6397   -0.2314   14.5952 H   0  0  0  0  0  0  0  0  0  0  0  0
    7.7979    1.9794   16.1957 H   0  0  0  0  0  0  0  0  0  0  0  0
    6.0009    3.8155   17.3742 H   0  0  0  0  0  0  0  0  0  0  0  0
    4.4297    4.6648   18.2178 H   0  0  0  0  0  0  0  0  0  0  0  0
    4.5813    6.4111   18.2790 H   0  0  0  0  0  0  0  0  0  0  0  0
    4.9870    4.7408   20.7844 H   0  0  0  0  0  0  0  0  0  0  0  0
    2.7526    4.0371   19.8566 H   0  0  0  0  0  0  0  0  0  0  0  0
    2.2801    5.7087   19.6500 H   0  0  0  0  0  0  0  0  0  0  0  0
    1.3613    4.4659   21.8180 H   0  0  0  0  0  0  0  0  0  0  0  0
    2.3633    5.6783   23.6703 H   0  0  0  0  0  0  0  0  0  0  0  0
    3.9020    7.5303   22.9841 H   0  0  0  0  0  0  0  0  0  0  0  0
    4.8731    6.0615   23.0667 H   0  0  0  0  0  0  0  0  0  0  0  0
    5.5222    7.1355   21.0333 H   0  0  0  0  0  0  0  0  0  0  0  0
    3.8680    7.5420   20.5906 H   0  0  0  0  0  0  0  0  0  0  0  0
    9.4301    5.7727   17.3844 H   0  0  0  0  0  0  0  0  0  0  0  0
  1  2  1  0
  2  3  1  0
  2  4  1  0
  4  5  2  0
  4  6  1  0
  2  7  1  0
  7  8  1  0
  8  9  2  0
  9 10  1  0
 10 11  1  0
 11 12  2  0
 11 13  1  0
 13 14  1  0
 14 15  1  0
 15 16  1  0
 16 17  2  0
 17 18  1  0
 18 19  1  0
  9 20  1  0
 20 21  2  0
 21  7  1  0
 19 14  1  0
  1 22  1  0
  1 23  1  0
  1 24  1  0
  3 25  1  0
  3 26  1  0
  3 27  1  0
  6 28  1  0
  8 29  1  0
 10 30  1  0
 13 31  1  0
 13 32  1  0
 14 33  1  0
 15 34  1  0
 15 35  1  0
 16 36  1  0
 17 37  1  0
 18 38  1  0
 18 39  1  0
 19 40  1  0
 19 41  1  0
 20 42  1  0
M  END
>  <Energy>  (635) 
27.985634457678913

>  <compound_id>  (635) 
51173

>  <target_id>  (635) 
1

>  <reference_id>  (635) 
122

>  <inspiration_ids>  (635) 
[122, 44]

>  <energy_score>  (635) 
-33.76899661295897

>  <distance_score>  (635) 
8.113423283023204

>  <path>  (635) 
/opt/xchem-fragalysis-2/maxwin/BulkDock/SCRATCH/511025/C51173-P122/C51173-P122.minimised.mol

>  <scratch_subdir>  (635) 
/opt/xchem-fragalysis-2/maxwin/BulkDock/SCRATCH/511025/C51173-P122

>  <fragmenstein_runtime>  (635) 
15.748935222625732

>  <fragmenstein_outcome>  (635) 
too moved

>  <fragmenstein_mode>  (635) 
expansion

>  <fragmenstein_error>  (635) 


$$$$
C51173-P44
     RDKit          3D

 42 43  0  0  0  0  0  0  0  0999 V2000
    8.5678    4.7599   14.7951 C   0  0  0  0  0  0  0  0  0  0  0  0
    9.2486    4.0022   15.9508 C   0  0  0  0  0  0  0  0  0  0  0  0
    9.4705    2.5403   15.5078 C   0  0  0  0  0  0  0  0  0  0  0  0
   10.6060    4.6651   16.1702 C   0  0  0  0  0  0  0  0  0  0  0  0
   11.6664    4.3348   15.6501 O   0  0  0  0  0  0  0  0  0  0  0  0
   10.5697    5.7708   16.9453 O   0  0  0  0  0  0  0  0  0  0  0  0
    8.4598    4.0377   17.1899 N   0  0  0  0  0  0  0  0  0  0  0  0
    7.4202    4.9094   17.5315 C   0  0  0  0  0  0  0  0  0  0  0  0
    7.0134    4.7452   18.8613 C   0  0  0  0  0  0  0  0  0  0  0  0
    5.6657    5.1007   19.4472 N   0  0  0  0  0  0  0  0  0  0  0  0
    5.2567    5.5515   20.9632 C   0  0  0  0  0  0  0  0  0  0  0  0
    5.9432    5.7742   21.9119 O   0  0  0  0  0  0  0  0  0  0  0  0
    3.5959    5.5772   21.1629 C   0  0  0  0  0  0  0  0  0  0  0  0
    2.7611    5.2033   22.6399 C   0  0  0  0  0  0  0  0  0  0  0  0
    1.3045    4.6138   22.4213 C   0  0  0  0  0  0  0  0  0  0  0  0
    0.5727    4.0438   23.6370 C   0  0  0  0  0  0  0  0  0  0  0  0
    1.1587    3.8215   24.8211 C   0  0  0  0  0  0  0  0  0  0  0  0
    2.6149    4.1090   25.0207 C   0  0  0  0  0  0  0  0  0  0  0  0
    3.4297    4.2917   23.7014 C   0  0  0  0  0  0  0  0  0  0  0  0
    7.8131    3.5001   19.0861 C   0  0  0  0  0  0  0  0  0  0  0  0
    8.6892    3.1279   18.1463 N   0  0  0  0  0  0  0  0  0  0  0  0
    9.1316    4.6491   13.8611 H   0  0  0  0  0  0  0  0  0  0  0  0
    7.5505    4.3939   14.6212 H   0  0  0  0  0  0  0  0  0  0  0  0
    8.5062    5.8362   14.9955 H   0  0  0  0  0  0  0  0  0  0  0  0
   10.1134    1.9942   16.2069 H   0  0  0  0  0  0  0  0  0  0  0  0
    8.5220    1.9964   15.4465 H   0  0  0  0  0  0  0  0  0  0  0  0
    9.9588    2.4874   14.5277 H   0  0  0  0  0  0  0  0  0  0  0  0
   11.5096    5.9941   17.1046 H   0  0  0  0  0  0  0  0  0  0  0  0
    7.0269    5.5887   16.7908 H   0  0  0  0  0  0  0  0  0  0  0  0
    4.8387    5.0762   18.8636 H   0  0  0  0  0  0  0  0  0  0  0  0
    3.1709    4.9191   20.3977 H   0  0  0  0  0  0  0  0  0  0  0  0
    3.2877    6.5972   20.9003 H   0  0  0  0  0  0  0  0  0  0  0  0
    2.6412    6.1879   23.1150 H   0  0  0  0  0  0  0  0  0  0  0  0
    1.3638    3.8170   21.6696 H   0  0  0  0  0  0  0  0  0  0  0  0
    0.6859    5.4094   21.9889 H   0  0  0  0  0  0  0  0  0  0  0  0
   -0.4879    3.8389   23.5119 H   0  0  0  0  0  0  0  0  0  0  0  0
    0.5829    3.4538   25.6654 H   0  0  0  0  0  0  0  0  0  0  0  0
    2.7102    5.0162   25.6291 H   0  0  0  0  0  0  0  0  0  0  0  0
    3.0676    3.2897   25.5913 H   0  0  0  0  0  0  0  0  0  0  0  0
    3.5932    3.3001   23.2652 H   0  0  0  0  0  0  0  0  0  0  0  0
    4.4186    4.6899   23.9544 H   0  0  0  0  0  0  0  0  0  0  0  0
    7.6583    2.7658   19.8495 H   0  0  0  0  0  0  0  0  0  0  0  0
  1  2  1  0
  2  3  1  0
  2  4  1  0
  4  5  2  0
  4  6  1  0
  2  7  1  0
  7  8  1  0
  8  9  2  0
  9 10  1  0
 10 11  1  0
 11 12  2  0
 11 13  1  0
 13 14  1  0
 14 15  1  0
 15 16  1  0
 16 17  2  0
 17 18  1  0
 18 19  1  0
  9 20  1  0
 20 21  2  0
 21  7  1  0
 19 14  1  0
  1 22  1  0
  1 23  1  0
  1 24  1  0
  3 25  1  0
  3 26  1  0
  3 27  1  0
  6 28  1  0
  8 29  1  0
 10 30  1  0
 13 31  1  0
 13 32  1  0
 14 33  1  0
 15 34  1  0
 15 35  1  0
 16 36  1  0
 17 37  1  0
 18 38  1  0
 18 39  1  0
 19 40  1  0
 19 41  1  0
 20 42  1  0
M  END
>  <Energy>  (636) 
92.325100857735109

>  <compound_id>  (636) 
51173

>  <target_id>  (636) 
1

>  <reference_id>  (636) 
44

>  <inspiration_ids>  (636) 
[122, 44]

>  <energy_score>  (636) 
27.053248930497773

>  <distance_score>  (636) 
7.0998882324746715

>  <path>  (636) 
/opt/xchem-fragalysis-2/maxwin/BulkDock/SCRATCH/511025/C51173-P44/C51173-P44.minimised.mol

>  <scratch_subdir>  (636) 
/opt/xchem-fragalysis-2/maxwin/BulkDock/SCRATCH/511025/C51173-P44

>  <fragmenstein_runtime>  (636) 
8.477074146270752

>  <fragmenstein_outcome>  (636) 
too moved

>  <fragmenstein_mode>  (636) 
expansion

>  <fragmenstein_error>  (636) 


$$$$
C17986-P127
     RDKit          3D

 42 44  0  0  0  0  0  0  0  0999 V2000
    2.9073   -3.7757   12.4494 C   0  0  0  0  0  0  0  0  0  0  0  0
    2.9803   -2.2208   11.2326 C   0  0  0  0  0  0  0  0  0  0  0  0
    2.5063   -0.3819   11.7997 C   0  0  0  0  0  0  0  0  0  0  0  0
    1.3039   -1.6421   10.5400 N   0  0  0  0  0  0  0  0  0  0  0  0
    0.6482   -1.8235    9.1542 C   0  0  0  0  0  0  0  0  0  0  0  0
    1.1751   -2.3233    8.1927 O   0  0  0  0  0  0  0  0  0  0  0  0
   -1.3241   -1.4079    8.7174 C   0  0  0  0  0  0  0  0  0  0  0  0
   -2.6133   -0.7131    8.9787 C   0  0  0  0  0  0  0  0  0  0  0  0
   -2.9249    0.1182    7.8718 C   0  0  0  0  0  0  0  0  0  0  0  0
   -2.4910   -0.5344    6.8258 N   0  0  0  0  0  0  0  0  0  0  0  0
   -2.2995   -1.7467    7.3815 N   0  0  0  0  0  0  0  0  0  0  0  0
   -3.6600   -2.5041    7.2473 C   0  0  0  0  0  0  0  0  0  0  0  0
   -5.0049   -1.7449    7.6460 C   0  0  0  0  0  0  0  0  0  0  0  0
   -5.4974   -0.9032    6.4564 C   0  0  0  0  0  0  0  0  0  0  0  0
   -4.8264   -1.5179    5.2454 C   0  0  0  0  0  0  0  0  0  0  0  0
   -4.2148   -2.7973    5.7962 C   0  0  0  0  0  0  0  0  0  0  0  0
    4.4090   -2.3458   12.0068 C   0  0  0  0  0  0  0  0  0  0  0  0
    5.2046   -3.2314   12.6290 N   0  0  0  0  0  0  0  0  0  0  0  0
    6.2741   -2.5680   13.6675 C   0  0  0  0  0  0  0  0  0  0  0  0
    6.7592   -1.5647   12.9453 C   0  0  0  0  0  0  0  0  0  0  0  0
    5.6381   -1.1092   12.3320 N   0  0  0  0  0  0  0  0  0  0  0  0
    3.0225   -3.5057   13.4938 H   0  0  0  0  0  0  0  0  0  0  0  0
    3.6486   -4.5191   12.0977 H   0  0  0  0  0  0  0  0  0  0  0  0
    2.0462   -4.4548   12.5068 H   0  0  0  0  0  0  0  0  0  0  0  0
    3.1904    0.4228   12.0850 H   0  0  0  0  0  0  0  0  0  0  0  0
    2.4472    0.2283   10.8908 H   0  0  0  0  0  0  0  0  0  0  0  0
    1.6492   -0.3508   12.4944 H   0  0  0  0  0  0  0  0  0  0  0  0
    0.6779   -1.1298   11.1146 H   0  0  0  0  0  0  0  0  0  0  0  0
   -3.1686   -0.3705    9.8088 H   0  0  0  0  0  0  0  0  0  0  0  0
   -3.5027    1.0299    7.7918 H   0  0  0  0  0  0  0  0  0  0  0  0
   -3.4793   -3.4480    7.7572 H   0  0  0  0  0  0  0  0  0  0  0  0
   -5.0113   -1.1782    8.5751 H   0  0  0  0  0  0  0  0  0  0  0  0
   -5.7854   -2.5042    7.7509 H   0  0  0  0  0  0  0  0  0  0  0  0
   -5.2549    0.1583    6.5473 H   0  0  0  0  0  0  0  0  0  0  0  0
   -6.5891   -0.9660    6.3776 H   0  0  0  0  0  0  0  0  0  0  0  0
   -4.0663   -0.8507    4.8291 H   0  0  0  0  0  0  0  0  0  0  0  0
   -5.5472   -1.7272    4.4483 H   0  0  0  0  0  0  0  0  0  0  0  0
   -3.5780   -3.2946    5.0749 H   0  0  0  0  0  0  0  0  0  0  0  0
   -5.0714   -3.4750    5.9091 H   0  0  0  0  0  0  0  0  0  0  0  0
    6.6210   -3.1170   14.5301 H   0  0  0  0  0  0  0  0  0  0  0  0
    7.6202   -0.9418   12.9968 H   0  0  0  0  0  0  0  0  0  0  0  0
    5.4848   -0.3160   11.7278 H   0  0  0  0  0  0  0  0  0  0  0  0
  1  2  1  0
  2  3  1  0
  2  4  1  0
  4  5  1  0
  5  6  2  0
  5  7  1  0
  7  8  2  0
  8  9  1  0
  9 10  2  0
 10 11  1  0
 11 12  1  0
 12 13  1  0
 13 14  1  0
 14 15  1  0
 15 16  1  0
  2 17  1  0
 17 18  2  0
 18 19  1  0
 19 20  2  0
 20 21  1  0
 11  7  1  0
 16 12  1  0
 21 17  1  0
  1 22  1  0
  1 23  1  0
  1 24  1  0
  3 25  1  0
  3 26  1  0
  3 27  1  0
  4 28  1  0
  8 29  1  0
  9 30  1  0
 12 31  1  0
 13 32  1  0
 13 33  1  0
 14 34  1  0
 14 35  1  0
 15 36  1  0
 15 37  1  0
 16 38  1  0
 16 39  1  0
 19 40  1  0
 20 41  1  0
 21 42  1  0
M  END
>  <Energy>  (637) 
686.17335150214421

>  <compound_id>  (637) 
17986

>  <target_id>  (637) 
1

>  <reference_id>  (637) 
127

>  <inspiration_ids>  (637) 
[127, 80]

>  <energy_score>  (637) 
676.8600287408342

>  <distance_score>  (637) 
6.105179865782111

>  <path>  (637) 
/opt/xchem-fragalysis-2/maxwin/BulkDock/SCRATCH/511025/C17986-P127/C17986-P127.minimised.mol

>  <scratch_subdir>  (637) 
/opt/xchem-fragalysis-2/maxwin/BulkDock/SCRATCH/511025/C17986-P127

>  <fragmenstein_runtime>  (637) 
14.402507066726685

>  <fragmenstein_outcome>  (637) 
too moved

>  <fragmenstein_mode>  (637) 
expansion

>  <fragmenstein_error>  (637) 


$$$$
C17986-P80
     RDKit          3D

 42 44  0  0  0  0  0  0  0  0999 V2000
    3.5812   -3.0339   11.5894 C   0  0  0  0  0  0  0  0  0  0  0  0
    3.9388   -1.2781   11.5477 C   0  0  0  0  0  0  0  0  0  0  0  0
    3.8432    0.5091   10.9618 C   0  0  0  0  0  0  0  0  0  0  0  0
    1.9069   -0.9448   11.4263 N   0  0  0  0  0  0  0  0  0  0  0  0
    0.5839   -1.3315   10.0440 C   0  0  0  0  0  0  0  0  0  0  0  0
    1.0823   -1.9503    9.1780 O   0  0  0  0  0  0  0  0  0  0  0  0
   -1.3835   -0.8658    9.4937 C   0  0  0  0  0  0  0  0  0  0  0  0
   -2.5200   -1.8583    8.8268 C   0  0  0  0  0  0  0  0  0  0  0  0
   -3.4666   -1.4349    7.9767 C   0  0  0  0  0  0  0  0  0  0  0  0
   -2.6710   -0.5480    7.4958 N   0  0  0  0  0  0  0  0  0  0  0  0
   -2.3489    0.1601    8.6164 N   0  0  0  0  0  0  0  0  0  0  0  0
   -3.5788    1.0317    8.9348 C   0  0  0  0  0  0  0  0  0  0  0  0
   -3.4793    2.8213    8.7535 C   0  0  0  0  0  0  0  0  0  0  0  0
   -4.8046    3.3480    8.0128 C   0  0  0  0  0  0  0  0  0  0  0  0
   -5.7396    2.1415    7.7267 C   0  0  0  0  0  0  0  0  0  0  0  0
   -5.0639    0.7863    8.1052 C   0  0  0  0  0  0  0  0  0  0  0  0
    5.7856   -1.2042   12.3530 C   0  0  0  0  0  0  0  0  0  0  0  0
    6.9605   -0.8989   11.8384 N   0  0  0  0  0  0  0  0  0  0  0  0
    7.7607   -0.8342   12.9363 C   0  0  0  0  0  0  0  0  0  0  0  0
    7.4781   -1.7750   13.8871 C   0  0  0  0  0  0  0  0  0  0  0  0
    6.2879   -2.1478   13.4254 N   0  0  0  0  0  0  0  0  0  0  0  0
    3.0413   -3.3667   10.7067 H   0  0  0  0  0  0  0  0  0  0  0  0
    3.0891   -3.3500   12.5167 H   0  0  0  0  0  0  0  0  0  0  0  0
    4.4734   -3.6526   11.6959 H   0  0  0  0  0  0  0  0  0  0  0  0
    2.9276    0.7988   10.4512 H   0  0  0  0  0  0  0  0  0  0  0  0
    3.8458    1.2461   11.7788 H   0  0  0  0  0  0  0  0  0  0  0  0
    4.5611    0.7717   10.1923 H   0  0  0  0  0  0  0  0  0  0  0  0
    1.4217   -0.4899   12.2003 H   0  0  0  0  0  0  0  0  0  0  0  0
   -2.7340   -2.8803    8.9873 H   0  0  0  0  0  0  0  0  0  0  0  0
   -4.3069   -1.9066    7.4859 H   0  0  0  0  0  0  0  0  0  0  0  0
   -3.8350    0.5559    9.8608 H   0  0  0  0  0  0  0  0  0  0  0  0
   -2.5544    3.1526    8.2751 H   0  0  0  0  0  0  0  0  0  0  0  0
   -3.5011    3.4195    9.6517 H   0  0  0  0  0  0  0  0  0  0  0  0
   -5.3177    4.0954    8.6300 H   0  0  0  0  0  0  0  0  0  0  0  0
   -4.5389    3.8710    7.0846 H   0  0  0  0  0  0  0  0  0  0  0  0
   -6.0101    2.1343    6.6635 H   0  0  0  0  0  0  0  0  0  0  0  0
   -6.6862    2.2539    8.2660 H   0  0  0  0  0  0  0  0  0  0  0  0
   -4.9784    0.2268    7.1706 H   0  0  0  0  0  0  0  0  0  0  0  0
   -5.7338    0.1999    8.7468 H   0  0  0  0  0  0  0  0  0  0  0  0
    8.6113   -0.1651   12.9849 H   0  0  0  0  0  0  0  0  0  0  0  0
    7.9731   -2.1299   14.7778 H   0  0  0  0  0  0  0  0  0  0  0  0
    5.7255   -2.8306   13.9001 H   0  0  0  0  0  0  0  0  0  0  0  0
  1  2  1  0
  2  3  1  0
  2  4  1  0
  4  5  1  0
  5  6  2  0
  5  7  1  0
  7  8  2  0
  8  9  1  0
  9 10  2  0
 10 11  1  0
 11 12  1  0
 12 13  1  0
 13 14  1  0
 14 15  1  0
 15 16  1  0
  2 17  1  0
 17 18  2  0
 18 19  1  0
 19 20  2  0
 20 21  1  0
 11  7  1  0
 16 12  1  0
 21 17  1  0
  1 22  1  0
  1 23  1  0
  1 24  1  0
  3 25  1  0
  3 26  1  0
  3 27  1  0
  4 28  1  0
  8 29  1  0
  9 30  1  0
 12 31  1  0
 13 32  1  0
 13 33  1  0
 14 34  1  0
 14 35  1  0
 15 36  1  0
 15 37  1  0
 16 38  1  0
 16 39  1  0
 19 40  1  0
 20 41  1  0
 21 42  1  0
M  END
>  <Energy>  (638) 
824.45616375043221

>  <compound_id>  (638) 
17986

>  <target_id>  (638) 
1

>  <reference_id>  (638) 
80

>  <inspiration_ids>  (638) 
[127, 80]

>  <energy_score>  (638) 
815.1428409891339

>  <distance_score>  (638) 
6.341629076902205

>  <path>  (638) 
/opt/xchem-fragalysis-2/maxwin/BulkDock/SCRATCH/511025/C17986-P80/C17986-P80.minimised.mol

>  <scratch_subdir>  (638) 
/opt/xchem-fragalysis-2/maxwin/BulkDock/SCRATCH/511025/C17986-P80

>  <fragmenstein_runtime>  (638) 
19.632112741470337

>  <fragmenstein_outcome>  (638) 
too moved

>  <fragmenstein_mode>  (638) 
expansion

>  <fragmenstein_error>  (638) 


$$$$
C17989-P127
     RDKit          3D

 33 35  0  0  0  0  0  0  0  0999 V2000
    1.2436   -0.8686   11.6241 O   0  0  0  0  0  0  0  0  0  0  0  0
    1.4607   -1.5782   10.6408 C   0  0  0  0  0  0  0  0  0  0  0  0
    0.4924   -1.8686    9.2318 N   0  0  0  0  0  0  0  0  0  0  0  0
   -1.3403   -1.3133    8.7795 C   0  0  0  0  0  0  0  0  0  0  0  0
   -2.3245   -2.0062    7.8959 C   0  0  0  0  0  0  0  0  0  0  0  0
   -2.5905   -1.1527    6.8001 C   0  0  0  0  0  0  0  0  0  0  0  0
   -2.4146    0.0781    7.2305 N   0  0  0  0  0  0  0  0  0  0  0  0
   -2.5804   -0.1926    8.5320 N   0  0  0  0  0  0  0  0  0  0  0  0
   -4.1391   -0.2105    8.6559 C   0  0  0  0  0  0  0  0  0  0  0  0
   -4.7846    1.0172    7.8756 C   0  0  0  0  0  0  0  0  0  0  0  0
   -5.1729    0.6015    6.4622 C   0  0  0  0  0  0  0  0  0  0  0  0
   -5.6608   -0.8126    6.6500 C   0  0  0  0  0  0  0  0  0  0  0  0
   -5.1090   -1.2803    8.0076 C   0  0  0  0  0  0  0  0  0  0  0  0
    3.0038   -2.5636   10.9105 C   0  0  0  0  0  0  0  0  0  0  0  0
    3.0393   -3.6544   12.0371 N   0  0  0  0  0  0  0  0  0  0  0  0
    4.1052   -4.3931   11.7760 C   0  0  0  0  0  0  0  0  0  0  0  0
    4.7876   -3.3359   12.1244 C   0  0  0  0  0  0  0  0  0  0  0  0
    4.0186   -2.2760   11.6708 N   0  0  0  0  0  0  0  0  0  0  0  0
    1.0047   -2.4390    8.5734 H   0  0  0  0  0  0  0  0  0  0  0  0
   -2.6110   -3.0434    7.8102 H   0  0  0  0  0  0  0  0  0  0  0  0
   -3.0137   -1.3178    5.8184 H   0  0  0  0  0  0  0  0  0  0  0  0
   -4.2694   -0.1770    9.7247 H   0  0  0  0  0  0  0  0  0  0  0  0
   -5.7778    1.2183    8.2918 H   0  0  0  0  0  0  0  0  0  0  0  0
   -4.1738    1.9255    7.8850 H   0  0  0  0  0  0  0  0  0  0  0  0
   -5.9608    1.2465    6.0576 H   0  0  0  0  0  0  0  0  0  0  0  0
   -4.3435    0.6562    5.7550 H   0  0  0  0  0  0  0  0  0  0  0  0
   -5.3392   -1.4605    5.8282 H   0  0  0  0  0  0  0  0  0  0  0  0
   -6.7568   -0.8476    6.6633 H   0  0  0  0  0  0  0  0  0  0  0  0
   -5.9852   -1.3486    8.6609 H   0  0  0  0  0  0  0  0  0  0  0  0
   -4.7193   -2.2803    7.8695 H   0  0  0  0  0  0  0  0  0  0  0  0
    4.1916   -5.4649   11.8199 H   0  0  0  0  0  0  0  0  0  0  0  0
    5.6295   -2.9565   12.6411 H   0  0  0  0  0  0  0  0  0  0  0  0
    4.3436   -1.3277   11.7467 H   0  0  0  0  0  0  0  0  0  0  0  0
  1  2  2  0
  2  3  1  0
  3  4  1  0
  4  5  2  0
  5  6  1  0
  6  7  2  0
  7  8  1  0
  8  9  1  0
  9 10  1  0
 10 11  1  0
 11 12  1  0
 12 13  1  0
  2 14  1  0
 14 15  2  0
 15 16  1  0
 16 17  2  0
 17 18  1  0
  8  4  1  0
 13  9  1  0
 18 14  1  0
  3 19  1  0
  5 20  1  0
  6 21  1  0
  9 22  1  0
 10 23  1  0
 10 24  1  0
 11 25  1  0
 11 26  1  0
 12 27  1  0
 12 28  1  0
 13 29  1  0
 13 30  1  0
 16 31  1  0
 17 32  1  0
 18 33  1  0
M  END
>  <Energy>  (639) 
557.47376390229397

>  <compound_id>  (639) 
17989

>  <target_id>  (639) 
1

>  <reference_id>  (639) 
127

>  <inspiration_ids>  (639) 
[127, 80]

>  <energy_score>  (639) 
474.9881822346425

>  <distance_score>  (639) 
6.985397449306425

>  <path>  (639) 
/opt/xchem-fragalysis-2/maxwin/BulkDock/SCRATCH/511025/C17989-P127/C17989-P127.minimised.mol

>  <scratch_subdir>  (639) 
/opt/xchem-fragalysis-2/maxwin/BulkDock/SCRATCH/511025/C17989-P127

>  <fragmenstein_runtime>  (639) 
13.821909666061401

>  <fragmenstein_outcome>  (639) 
too moved

>  <fragmenstein_mode>  (639) 
expansion

>  <fragmenstein_error>  (639) 


$$$$
C17989-P80
     RDKit          3D

 33 35  0  0  0  0  0  0  0  0999 V2000
    0.8752   -2.3524    9.0774 O   0  0  0  0  0  0  0  0  0  0  0  0
    0.3647   -1.4245    9.6770 C   0  0  0  0  0  0  0  0  0  0  0  0
   -1.5711   -0.9763    9.3117 N   0  0  0  0  0  0  0  0  0  0  0  0
   -2.6833   -1.6392    8.2871 C   0  0  0  0  0  0  0  0  0  0  0  0
   -3.2395   -2.9162    8.0324 C   0  0  0  0  0  0  0  0  0  0  0  0
   -4.4276   -2.9662    7.2853 C   0  0  0  0  0  0  0  0  0  0  0  0
   -4.8479   -1.7682    7.1307 N   0  0  0  0  0  0  0  0  0  0  0  0
   -4.0601   -0.9961    7.9004 N   0  0  0  0  0  0  0  0  0  0  0  0
   -4.9487    0.1379    8.1731 C   0  0  0  0  0  0  0  0  0  0  0  0
   -5.6443    0.7557    6.8720 C   0  0  0  0  0  0  0  0  0  0  0  0
   -6.7873    1.5881    7.4035 C   0  0  0  0  0  0  0  0  0  0  0  0
   -7.4415    0.6253    8.3603 C   0  0  0  0  0  0  0  0  0  0  0  0
   -6.3132   -0.2841    8.8550 C   0  0  0  0  0  0  0  0  0  0  0  0
    1.3336   -0.7582   10.4198 C   0  0  0  0  0  0  0  0  0  0  0  0
    2.1377   -0.7367   11.5160 N   0  0  0  0  0  0  0  0  0  0  0  0
    3.2443    0.5074   11.2664 C   0  0  0  0  0  0  0  0  0  0  0  0
    2.9914    1.3953   10.2814 C   0  0  0  0  0  0  0  0  0  0  0  0
    1.9711    0.7009    9.6521 N   0  0  0  0  0  0  0  0  0  0  0  0
   -1.8588   -0.2824    9.9100 H   0  0  0  0  0  0  0  0  0  0  0  0
   -3.0884   -3.8713    8.4455 H   0  0  0  0  0  0  0  0  0  0  0  0
   -5.0300   -3.7672    6.9083 H   0  0  0  0  0  0  0  0  0  0  0  0
   -4.3538    0.8384    8.7341 H   0  0  0  0  0  0  0  0  0  0  0  0
   -6.0894   -0.0276    6.2416 H   0  0  0  0  0  0  0  0  0  0  0  0
   -5.0477    1.3266    6.1686 H   0  0  0  0  0  0  0  0  0  0  0  0
   -6.4141    2.4784    7.9188 H   0  0  0  0  0  0  0  0  0  0  0  0
   -7.4732    1.9107    6.6148 H   0  0  0  0  0  0  0  0  0  0  0  0
   -8.1953    0.0227    7.8386 H   0  0  0  0  0  0  0  0  0  0  0  0
   -7.9575    1.1400    9.1741 H   0  0  0  0  0  0  0  0  0  0  0  0
   -6.3091   -0.2518    9.9291 H   0  0  0  0  0  0  0  0  0  0  0  0
   -6.6064   -1.3107    8.6160 H   0  0  0  0  0  0  0  0  0  0  0  0
    4.2746    0.2254   11.3226 H   0  0  0  0  0  0  0  0  0  0  0  0
    3.5711    2.1575    9.7812 H   0  0  0  0  0  0  0  0  0  0  0  0
    1.7940    0.8853    8.6929 H   0  0  0  0  0  0  0  0  0  0  0  0
  1  2  2  0
  2  3  1  0
  3  4  1  0
  4  5  2  0
  5  6  1  0
  6  7  2  0
  7  8  1  0
  8  9  1  0
  9 10  1  0
 10 11  1  0
 11 12  1  0
 12 13  1  0
  2 14  1  0
 14 15  2  0
 15 16  1  0
 16 17  2  0
 17 18  1  0
  8  4  1  0
 13  9  1  0
 18 14  1  0
  3 19  1  0
  5 20  1  0
  6 21  1  0
  9 22  1  0
 10 23  1  0
 10 24  1  0
 11 25  1  0
 11 26  1  0
 12 27  1  0
 12 28  1  0
 13 29  1  0
 13 30  1  0
 16 31  1  0
 17 32  1  0
 18 33  1  0
M  END
>  <Energy>  (640) 
413.48497293462947

>  <compound_id>  (640) 
17989

>  <target_id>  (640) 
1

>  <reference_id>  (640) 
80

>  <inspiration_ids>  (640) 
[127, 80]

>  <energy_score>  (640) 
330.99939126698195

>  <distance_score>  (640) 
7.8321957664451

>  <path>  (640) 
/opt/xchem-fragalysis-2/maxwin/BulkDock/SCRATCH/511025/C17989-P80/C17989-P80.minimised.mol

>  <scratch_subdir>  (640) 
/opt/xchem-fragalysis-2/maxwin/BulkDock/SCRATCH/511025/C17989-P80

>  <fragmenstein_runtime>  (640) 
9.5245041847229

>  <fragmenstein_outcome>  (640) 
too moved

>  <fragmenstein_mode>  (640) 
expansion

>  <fragmenstein_error>  (640) 


$$$$
C17992-P127
     RDKit          3D

 45 47  0  0  0  0  0  0  0  0999 V2000
    1.2429    2.0123   13.6359 C   0  0  0  0  0  0  0  0  0  0  0  0
    1.9750    1.0179   12.7051 C   0  0  0  0  0  0  0  0  0  0  0  0
    2.8660    1.7436   11.6561 C   0  0  0  0  0  0  0  0  0  0  0  0
    1.2251   -0.5582   12.3587 C   0  0  0  0  0  0  0  0  0  0  0  0
   -0.7467   -0.7082   11.9422 N   0  0  0  0  0  0  0  0  0  0  0  0
   -2.1418    0.2721   12.4145 C   0  0  0  0  0  0  0  0  0  0  0  0
   -2.0820    1.3412   13.0609 O   0  0  0  0  0  0  0  0  0  0  0  0
   -4.0159   -0.3237   11.7032 C   0  0  0  0  0  0  0  0  0  0  0  0
   -5.6723   -0.3857   11.9616 C   0  0  0  0  0  0  0  0  0  0  0  0
   -6.4856   -0.2935   10.2792 C   0  0  0  0  0  0  0  0  0  0  0  0
   -5.5721   -0.3493    9.3324 N   0  0  0  0  0  0  0  0  0  0  0  0
   -4.2395   -0.4038    9.9119 N   0  0  0  0  0  0  0  0  0  0  0  0
   -3.3714   -0.5496    8.7191 C   0  0  0  0  0  0  0  0  0  0  0  0
   -3.8330   -1.6736    7.7158 C   0  0  0  0  0  0  0  0  0  0  0  0
   -4.0276   -1.0492    6.3415 C   0  0  0  0  0  0  0  0  0  0  0  0
   -4.4294    0.3655    6.6606 C   0  0  0  0  0  0  0  0  0  0  0  0
   -3.4904    0.7035    7.8135 C   0  0  0  0  0  0  0  0  0  0  0  0
    2.6772   -1.7768   11.4946 C   0  0  0  0  0  0  0  0  0  0  0  0
    3.6033   -2.7028   11.0318 N   0  0  0  0  0  0  0  0  0  0  0  0
    4.2172   -3.9805   11.5429 C   0  0  0  0  0  0  0  0  0  0  0  0
    3.7351   -4.2307   12.7303 C   0  0  0  0  0  0  0  0  0  0  0  0
    2.9487   -3.1638   12.7847 N   0  0  0  0  0  0  0  0  0  0  0  0
    0.7521    1.5022   14.4617 H   0  0  0  0  0  0  0  0  0  0  0  0
    1.9743    2.6956   14.0871 H   0  0  0  0  0  0  0  0  0  0  0  0
    0.5182    2.6535   13.1280 H   0  0  0  0  0  0  0  0  0  0  0  0
    2.7791    0.7785   13.3430 H   0  0  0  0  0  0  0  0  0  0  0  0
    2.5890    2.7992   11.5543 H   0  0  0  0  0  0  0  0  0  0  0  0
    2.8455    1.2846   10.6721 H   0  0  0  0  0  0  0  0  0  0  0  0
    3.9141    1.7553   11.9748 H   0  0  0  0  0  0  0  0  0  0  0  0
    1.1531   -0.9734   13.3742 H   0  0  0  0  0  0  0  0  0  0  0  0
   -1.0630   -1.4578   11.3648 H   0  0  0  0  0  0  0  0  0  0  0  0
   -6.3060   -0.1334   12.8054 H   0  0  0  0  0  0  0  0  0  0  0  0
   -7.4754    0.1644   10.1346 H   0  0  0  0  0  0  0  0  0  0  0  0
   -2.3686   -0.8108    8.9951 H   0  0  0  0  0  0  0  0  0  0  0  0
   -3.1104   -2.4906    7.6774 H   0  0  0  0  0  0  0  0  0  0  0  0
   -4.7987   -2.1086    7.9683 H   0  0  0  0  0  0  0  0  0  0  0  0
   -4.7798   -1.5762    5.7469 H   0  0  0  0  0  0  0  0  0  0  0  0
   -3.0930   -1.0548    5.7784 H   0  0  0  0  0  0  0  0  0  0  0  0
   -4.3041    1.0275    5.8029 H   0  0  0  0  0  0  0  0  0  0  0  0
   -5.4806    0.4236    6.9583 H   0  0  0  0  0  0  0  0  0  0  0  0
   -2.5195    0.8945    7.3831 H   0  0  0  0  0  0  0  0  0  0  0  0
   -3.7928    1.6216    8.3141 H   0  0  0  0  0  0  0  0  0  0  0  0
    4.8130   -4.6507   10.9348 H   0  0  0  0  0  0  0  0  0  0  0  0
    3.7402   -5.0309   13.4489 H   0  0  0  0  0  0  0  0  0  0  0  0
    2.3239   -3.0573   13.5671 H   0  0  0  0  0  0  0  0  0  0  0  0
  1  2  1  0
  2  3  1  0
  2  4  1  0
  4  5  1  0
  5  6  1  0
  6  7  2  0
  6  8  1  0
  8  9  2  0
  9 10  1  0
 10 11  2  0
 11 12  1  0
 12 13  1  0
 13 14  1  0
 14 15  1  0
 15 16  1  0
 16 17  1  0
  4 18  1  0
 18 19  2  0
 19 20  1  0
 20 21  2  0
 21 22  1  0
 12  8  1  0
 17 13  1  0
 22 18  1  0
  1 23  1  0
  1 24  1  0
  1 25  1  0
  2 26  1  0
  3 27  1  0
  3 28  1  0
  3 29  1  0
  4 30  1  0
  5 31  1  0
  9 32  1  0
 10 33  1  0
 13 34  1  0
 14 35  1  0
 14 36  1  0
 15 37  1  0
 15 38  1  0
 16 39  1  0
 16 40  1  0
 17 41  1  0
 17 42  1  0
 20 43  1  0
 21 44  1  0
 22 45  1  0
M  END
>  <Energy>  (641) 
720.25505936577929

>  <compound_id>  (641) 
17992

>  <target_id>  (641) 
1

>  <reference_id>  (641) 
127

>  <inspiration_ids>  (641) 
[127, 80]

>  <energy_score>  (641) 
690.5311374576676

>  <distance_score>  (641) 
6.6207728274459505

>  <path>  (641) 
/opt/xchem-fragalysis-2/maxwin/BulkDock/SCRATCH/511025/C17992-P127/C17992-P127.minimised.mol

>  <scratch_subdir>  (641) 
/opt/xchem-fragalysis-2/maxwin/BulkDock/SCRATCH/511025/C17992-P127

>  <fragmenstein_runtime>  (641) 
22.7954843044281

>  <fragmenstein_outcome>  (641) 
too moved

>  <fragmenstein_mode>  (641) 
expansion

>  <fragmenstein_error>  (641) 


$$$$
C17992-P80
     RDKit          3D

 45 47  0  0  0  0  0  0  0  0999 V2000
    4.1554    2.1180    8.2787 C   0  0  0  0  0  0  0  0  0  0  0  0
    2.6337    1.7651    8.3697 C   0  0  0  0  0  0  0  0  0  0  0  0
    2.0897    3.2538    8.2857 C   0  0  0  0  0  0  0  0  0  0  0  0
    1.9396    0.7112    9.7667 C   0  0  0  0  0  0  0  0  0  0  0  0
    0.3584   -0.5902    9.9598 N   0  0  0  0  0  0  0  0  0  0  0  0
   -1.5576   -0.5241    9.1779 C   0  0  0  0  0  0  0  0  0  0  0  0
   -1.8181    0.4870    8.6040 O   0  0  0  0  0  0  0  0  0  0  0  0
   -2.9357   -1.6366    8.9516 C   0  0  0  0  0  0  0  0  0  0  0  0
   -4.1531   -0.7364    9.3179 C   0  0  0  0  0  0  0  0  0  0  0  0
   -4.6428    0.0288    8.2714 C   0  0  0  0  0  0  0  0  0  0  0  0
   -4.1885   -0.5416    7.1887 N   0  0  0  0  0  0  0  0  0  0  0  0
   -3.9970   -1.7785    7.6512 N   0  0  0  0  0  0  0  0  0  0  0  0
   -5.2772   -2.5937    7.4009 C   0  0  0  0  0  0  0  0  0  0  0  0
   -6.6506   -1.9245    7.8501 C   0  0  0  0  0  0  0  0  0  0  0  0
   -7.2123   -1.2199    6.6298 C   0  0  0  0  0  0  0  0  0  0  0  0
   -7.0462   -2.2859    5.5791 C   0  0  0  0  0  0  0  0  0  0  0  0
   -5.8344   -3.1165    6.0384 C   0  0  0  0  0  0  0  0  0  0  0  0
    3.1277    1.3237   11.0322 C   0  0  0  0  0  0  0  0  0  0  0  0
    4.0348    2.2305   10.6935 N   0  0  0  0  0  0  0  0  0  0  0  0
    4.1096    3.2091   11.6370 C   0  0  0  0  0  0  0  0  0  0  0  0
    3.2461    2.9080   12.6366 C   0  0  0  0  0  0  0  0  0  0  0  0
    2.8802    1.6096   12.3833 N   0  0  0  0  0  0  0  0  0  0  0  0
    4.8153    1.3461    8.6552 H   0  0  0  0  0  0  0  0  0  0  0  0
    4.4030    2.3516    7.2351 H   0  0  0  0  0  0  0  0  0  0  0  0
    4.4356    3.0619    8.7637 H   0  0  0  0  0  0  0  0  0  0  0  0
    2.4908    1.2263    7.4723 H   0  0  0  0  0  0  0  0  0  0  0  0
    2.7207    3.8713    7.6311 H   0  0  0  0  0  0  0  0  0  0  0  0
    2.0976    3.7292    9.2726 H   0  0  0  0  0  0  0  0  0  0  0  0
    1.1070    3.3984    7.8525 H   0  0  0  0  0  0  0  0  0  0  0  0
    1.5005    1.6808    9.7678 H   0  0  0  0  0  0  0  0  0  0  0  0
    0.5144   -1.4852   10.3400 H   0  0  0  0  0  0  0  0  0  0  0  0
   -4.2841   -0.3566   10.3020 H   0  0  0  0  0  0  0  0  0  0  0  0
   -5.2768    0.8988    8.2191 H   0  0  0  0  0  0  0  0  0  0  0  0
   -4.9910   -3.5394    7.8102 H   0  0  0  0  0  0  0  0  0  0  0  0
   -6.6302   -1.2783    8.7270 H   0  0  0  0  0  0  0  0  0  0  0  0
   -7.3945   -2.7063    8.0690 H   0  0  0  0  0  0  0  0  0  0  0  0
   -8.2616   -0.9395    6.7635 H   0  0  0  0  0  0  0  0  0  0  0  0
   -6.6562   -0.3178    6.3641 H   0  0  0  0  0  0  0  0  0  0  0  0
   -6.9787   -1.8539    4.5813 H   0  0  0  0  0  0  0  0  0  0  0  0
   -7.9353   -2.9306    5.5573 H   0  0  0  0  0  0  0  0  0  0  0  0
   -5.1072   -3.3518    5.2795 H   0  0  0  0  0  0  0  0  0  0  0  0
   -6.2860   -4.0976    6.2530 H   0  0  0  0  0  0  0  0  0  0  0  0
    4.7301    4.0835   11.5068 H   0  0  0  0  0  0  0  0  0  0  0  0
    2.9429    3.4294   13.5325 H   0  0  0  0  0  0  0  0  0  0  0  0
    2.2424    1.1068   12.9735 H   0  0  0  0  0  0  0  0  0  0  0  0
  1  2  1  0
  2  3  1  0
  2  4  1  0
  4  5  1  0
  5  6  1  0
  6  7  2  0
  6  8  1  0
  8  9  2  0
  9 10  1  0
 10 11  2  0
 11 12  1  0
 12 13  1  0
 13 14  1  0
 14 15  1  0
 15 16  1  0
 16 17  1  0
  4 18  1  0
 18 19  2  0
 19 20  1  0
 20 21  2  0
 21 22  1  0
 12  8  1  0
 17 13  1  0
 22 18  1  0
  1 23  1  0
  1 24  1  0
  1 25  1  0
  2 26  1  0
  3 27  1  0
  3 28  1  0
  3 29  1  0
  4 30  1  0
  5 31  1  0
  9 32  1  0
 10 33  1  0
 13 34  1  0
 14 35  1  0
 14 36  1  0
 15 37  1  0
 15 38  1  0
 16 39  1  0
 16 40  1  0
 17 41  1  0
 17 42  1  0
 20 43  1  0
 21 44  1  0
 22 45  1  0
M  END
>  <Energy>  (642) 
628.45663492495703

>  <compound_id>  (642) 
17992

>  <target_id>  (642) 
1

>  <reference_id>  (642) 
80

>  <inspiration_ids>  (642) 
[127, 80]

>  <energy_score>  (642) 
598.7327130168409

>  <distance_score>  (642) 
7.148881885176867

>  <path>  (642) 
/opt/xchem-fragalysis-2/maxwin/BulkDock/SCRATCH/511025/C17992-P80/C17992-P80.minimised.mol

>  <scratch_subdir>  (642) 
/opt/xchem-fragalysis-2/maxwin/BulkDock/SCRATCH/511025/C17992-P80

>  <fragmenstein_runtime>  (642) 
13.968891382217407

>  <fragmenstein_outcome>  (642) 
too moved

>  <fragmenstein_mode>  (642) 
expansion

>  <fragmenstein_error>  (642) 


$$$$
C17996-P127
     RDKit          3D

 40 42  0  0  0  0  0  0  0  0999 V2000
    1.2288   -2.1027    8.4708 O   0  0  0  0  0  0  0  0  0  0  0  0
    0.4891   -1.6471    9.3323 C   0  0  0  0  0  0  0  0  0  0  0  0
    0.7674   -1.1818   10.6282 N   0  0  0  0  0  0  0  0  0  0  0  0
    2.2186   -0.9625   11.4420 C   0  0  0  0  0  0  0  0  0  0  0  0
    2.7937    0.7226   11.4903 C   0  0  0  0  0  0  0  0  0  0  0  0
    2.7954    1.5845   10.3454 O   0  0  0  0  0  0  0  0  0  0  0  0
    3.8619   -1.9594   11.6397 C   0  0  0  0  0  0  0  0  0  0  0  0
    3.8720   -3.1986   11.9384 N   0  0  0  0  0  0  0  0  0  0  0  0
    5.1329   -3.3041   12.3320 C   0  0  0  0  0  0  0  0  0  0  0  0
    6.1047   -2.2241   12.7100 C   0  0  0  0  0  0  0  0  0  0  0  0
    5.3749   -1.1290   12.2443 N   0  0  0  0  0  0  0  0  0  0  0  0
   -1.4222   -1.4136    8.6783 C   0  0  0  0  0  0  0  0  0  0  0  0
   -1.8595   -1.0674    7.3074 C   0  0  0  0  0  0  0  0  0  0  0  0
   -2.7058    0.1086    7.3673 C   0  0  0  0  0  0  0  0  0  0  0  0
   -3.0677    0.2628    8.6272 N   0  0  0  0  0  0  0  0  0  0  0  0
   -3.0047   -1.0555    8.9141 N   0  0  0  0  0  0  0  0  0  0  0  0
   -4.3010   -1.5730    8.1982 C   0  0  0  0  0  0  0  0  0  0  0  0
   -5.4022   -0.5915    7.5738 C   0  0  0  0  0  0  0  0  0  0  0  0
   -5.6869   -1.0767    6.1529 C   0  0  0  0  0  0  0  0  0  0  0  0
   -4.5956   -2.0774    5.8278 C   0  0  0  0  0  0  0  0  0  0  0  0
   -4.2720   -2.7141    7.1736 C   0  0  0  0  0  0  0  0  0  0  0  0
   -0.0997   -0.8698   11.0540 H   0  0  0  0  0  0  0  0  0  0  0  0
    2.3038   -1.6661   10.6217 H   0  0  0  0  0  0  0  0  0  0  0  0
    2.2667    1.2097   12.3207 H   0  0  0  0  0  0  0  0  0  0  0  0
    3.8346    0.8175   11.7464 H   0  0  0  0  0  0  0  0  0  0  0  0
    2.2338    1.2296    9.6355 H   0  0  0  0  0  0  0  0  0  0  0  0
    5.2235   -4.3366   12.2323 H   0  0  0  0  0  0  0  0  0  0  0  0
    7.1013   -2.1195   13.0909 H   0  0  0  0  0  0  0  0  0  0  0  0
    5.5870   -0.3338   11.6747 H   0  0  0  0  0  0  0  0  0  0  0  0
   -1.2607   -1.2480    6.4525 H   0  0  0  0  0  0  0  0  0  0  0  0
   -3.0777    0.7930    6.6234 H   0  0  0  0  0  0  0  0  0  0  0  0
   -4.8486   -1.7327    9.0824 H   0  0  0  0  0  0  0  0  0  0  0  0
   -6.3336   -0.6837    8.1516 H   0  0  0  0  0  0  0  0  0  0  0  0
   -5.1770    0.4773    7.5866 H   0  0  0  0  0  0  0  0  0  0  0  0
   -6.6679   -1.5656    6.1188 H   0  0  0  0  0  0  0  0  0  0  0  0
   -5.7063   -0.2509    5.4350 H   0  0  0  0  0  0  0  0  0  0  0  0
   -3.7376   -1.5569    5.3994 H   0  0  0  0  0  0  0  0  0  0  0  0
   -4.9292   -2.8172    5.0935 H   0  0  0  0  0  0  0  0  0  0  0  0
   -5.1126   -3.3836    7.3686 H   0  0  0  0  0  0  0  0  0  0  0  0
   -3.3692   -3.3215    7.1872 H   0  0  0  0  0  0  0  0  0  0  0  0
  1  2  2  0
  2  3  1  0
  3  4  1  0
  4  5  1  0
  5  6  1  0
  4  7  1  0
  7  8  2  0
  8  9  1  0
  9 10  2  0
 10 11  1  0
  2 12  1  0
 12 13  2  0
 13 14  1  0
 14 15  2  0
 15 16  1  0
 16 17  1  0
 17 18  1  0
 18 19  1  0
 19 20  1  0
 20 21  1  0
 11  7  1  0
 16 12  1  0
 21 17  1  0
  3 22  1  0
  4 23  1  0
  5 24  1  0
  5 25  1  0
  6 26  1  0
  9 27  1  0
 10 28  1  0
 11 29  1  0
 13 30  1  0
 14 31  1  0
 17 32  1  0
 18 33  1  0
 18 34  1  0
 19 35  1  0
 19 36  1  0
 20 37  1  0
 20 38  1  0
 21 39  1  0
 21 40  1  0
M  END
>  <Energy>  (643) 
498.25293164478097

>  <compound_id>  (643) 
17996

>  <target_id>  (643) 
1

>  <reference_id>  (643) 
127

>  <inspiration_ids>  (643) 
[127, 80]

>  <energy_score>  (643) 
448.23904694096933

>  <distance_score>  (643) 
6.732584809199746

>  <path>  (643) 
/opt/xchem-fragalysis-2/maxwin/BulkDock/SCRATCH/511025/C17996-P127/C17996-P127.minimised.mol

>  <scratch_subdir>  (643) 
/opt/xchem-fragalysis-2/maxwin/BulkDock/SCRATCH/511025/C17996-P127

>  <fragmenstein_runtime>  (643) 
13.613396883010864

>  <fragmenstein_outcome>  (643) 
too moved

>  <fragmenstein_mode>  (643) 
expansion

>  <fragmenstein_error>  (643) 


$$$$
C17996-P80
     RDKit          3D

 40 42  0  0  0  0  0  0  0  0999 V2000
   -1.5727   -0.5232    7.7599 O   0  0  0  0  0  0  0  0  0  0  0  0
   -1.7101   -0.9417    8.8542 C   0  0  0  0  0  0  0  0  0  0  0  0
   -0.0852   -0.8750   10.0580 N   0  0  0  0  0  0  0  0  0  0  0  0
    1.6959   -0.0794    9.7847 C   0  0  0  0  0  0  0  0  0  0  0  0
    2.2070    1.6071    9.0121 C   0  0  0  0  0  0  0  0  0  0  0  0
    3.4972    1.7455    8.3723 O   0  0  0  0  0  0  0  0  0  0  0  0
    3.3565    0.3570   10.8798 C   0  0  0  0  0  0  0  0  0  0  0  0
    4.1858   -0.6841   11.4362 N   0  0  0  0  0  0  0  0  0  0  0  0
    5.6508   -0.7581   11.8914 C   0  0  0  0  0  0  0  0  0  0  0  0
    6.0029   -0.4411   10.6540 C   0  0  0  0  0  0  0  0  0  0  0  0
    4.6451    0.7189   10.2264 N   0  0  0  0  0  0  0  0  0  0  0  0
   -3.3396   -1.3193    9.0525 C   0  0  0  0  0  0  0  0  0  0  0  0
   -3.7597    0.1438    8.9584 C   0  0  0  0  0  0  0  0  0  0  0  0
   -5.0797    0.4086    8.6327 C   0  0  0  0  0  0  0  0  0  0  0  0
   -5.6128   -0.7112    9.0062 N   0  0  0  0  0  0  0  0  0  0  0  0
   -4.7327   -1.4519    8.2711 N   0  0  0  0  0  0  0  0  0  0  0  0
   -5.6423   -2.0017    7.2524 C   0  0  0  0  0  0  0  0  0  0  0  0
   -6.4852   -0.9499    6.4288 C   0  0  0  0  0  0  0  0  0  0  0  0
   -7.3454   -1.7372    5.4480 C   0  0  0  0  0  0  0  0  0  0  0  0
   -6.9380   -3.1915    5.5905 C   0  0  0  0  0  0  0  0  0  0  0  0
   -5.6271   -3.2088    6.3777 C   0  0  0  0  0  0  0  0  0  0  0  0
   -0.3459   -1.1724   10.9658 H   0  0  0  0  0  0  0  0  0  0  0  0
    1.7154   -0.7262    8.9262 H   0  0  0  0  0  0  0  0  0  0  0  0
    2.2790    2.3357    9.8180 H   0  0  0  0  0  0  0  0  0  0  0  0
    1.6322    2.0864    8.2492 H   0  0  0  0  0  0  0  0  0  0  0  0
    3.4864    1.3564    7.4721 H   0  0  0  0  0  0  0  0  0  0  0  0
    6.1692   -1.3835   12.6061 H   0  0  0  0  0  0  0  0  0  0  0  0
    6.8167   -0.3712    9.9993 H   0  0  0  0  0  0  0  0  0  0  0  0
    4.7519    1.2465    9.3689 H   0  0  0  0  0  0  0  0  0  0  0  0
   -3.0240    0.9269    9.0163 H   0  0  0  0  0  0  0  0  0  0  0  0
   -5.6800    1.2607    8.3437 H   0  0  0  0  0  0  0  0  0  0  0  0
   -6.4611   -2.3387    7.9094 H   0  0  0  0  0  0  0  0  0  0  0  0
   -5.8721   -0.2024    5.9208 H   0  0  0  0  0  0  0  0  0  0  0  0
   -7.1650   -0.3789    7.0746 H   0  0  0  0  0  0  0  0  0  0  0  0
   -8.4108   -1.6174    5.6762 H   0  0  0  0  0  0  0  0  0  0  0  0
   -7.2095   -1.3732    4.4252 H   0  0  0  0  0  0  0  0  0  0  0  0
   -6.8364   -3.6902    4.6214 H   0  0  0  0  0  0  0  0  0  0  0  0
   -7.7110   -3.7342    6.1493 H   0  0  0  0  0  0  0  0  0  0  0  0
   -5.6611   -4.0727    6.9962 H   0  0  0  0  0  0  0  0  0  0  0  0
   -4.7968   -3.2813    5.7127 H   0  0  0  0  0  0  0  0  0  0  0  0
  1  2  2  0
  2  3  1  0
  3  4  1  0
  4  5  1  0
  5  6  1  0
  4  7  1  0
  7  8  2  0
  8  9  1  0
  9 10  2  0
 10 11  1  0
  2 12  1  0
 12 13  2  0
 13 14  1  0
 14 15  2  0
 15 16  1  0
 16 17  1  0
 17 18  1  0
 18 19  1  0
 19 20  1  0
 20 21  1  0
 11  7  1  0
 16 12  1  0
 21 17  1  0
  3 22  1  0
  4 23  1  0
  5 24  1  0
  5 25  1  0
  6 26  1  0
  9 27  1  0
 10 28  1  0
 11 29  1  0
 13 30  1  0
 14 31  1  0
 17 32  1  0
 18 33  1  0
 18 34  1  0
 19 35  1  0
 19 36  1  0
 20 37  1  0
 20 38  1  0
 21 39  1  0
 21 40  1  0
M  END
>  <Energy>  (644) 
751.89083388047504

>  <compound_id>  (644) 
17996

>  <target_id>  (644) 
1

>  <reference_id>  (644) 
80

>  <inspiration_ids>  (644) 
[127, 80]

>  <energy_score>  (644) 
701.8769491766768

>  <distance_score>  (644) 
6.2385204618107615

>  <path>  (644) 
/opt/xchem-fragalysis-2/maxwin/BulkDock/SCRATCH/511025/C17996-P80/C17996-P80.minimised.mol

>  <scratch_subdir>  (644) 
/opt/xchem-fragalysis-2/maxwin/BulkDock/SCRATCH/511025/C17996-P80

>  <fragmenstein_runtime>  (644) 
19.341079235076904

>  <fragmenstein_outcome>  (644) 
too moved

>  <fragmenstein_mode>  (644) 
expansion

>  <fragmenstein_error>  (644) 


$$$$
C48749-P127
     RDKit          3D

 41 43  0  0  0  0  0  0  0  0999 V2000
    6.9747   -1.3849    9.0829 C   0  0  0  0  0  0  0  0  0  0  0  0
    5.8406   -3.2023    8.5385 N   0  0  0  0  0  0  0  0  0  0  0  0
    7.1352   -3.9148    9.5498 C   0  0  0  0  0  0  0  0  0  0  0  0
    6.6769   -3.2378   11.3530 C   0  0  0  0  0  0  0  0  0  0  0  0
    5.2206   -3.4953   12.2161 C   0  0  0  0  0  0  0  0  0  0  0  0
    5.6275   -3.2027   13.5991 N   0  0  0  0  0  0  0  0  0  0  0  0
    6.6961   -2.2602   13.4728 C   0  0  0  0  0  0  0  0  0  0  0  0
    7.0779   -2.0652   12.1939 N   0  0  0  0  0  0  0  0  0  0  0  0
    3.8303   -3.1175    8.8721 C   0  0  0  0  0  0  0  0  0  0  0  0
    3.4380   -3.4938    9.8885 O   0  0  0  0  0  0  0  0  0  0  0  0
    2.7699   -2.2553    7.4460 N   0  0  0  0  0  0  0  0  0  0  0  0
    0.8411   -1.8990    7.1746 C   0  0  0  0  0  0  0  0  0  0  0  0
   -0.4775   -1.0409    6.2651 C   0  0  0  0  0  0  0  0  0  0  0  0
   -1.9211   -0.2790    7.1937 C   0  0  0  0  0  0  0  0  0  0  0  0
   -1.6985   -0.9516    8.2921 N   0  0  0  0  0  0  0  0  0  0  0  0
   -1.1663   -1.7164    7.2712 N   0  0  0  0  0  0  0  0  0  0  0  0
   -2.8159   -2.3890    7.1411 C   0  0  0  0  0  0  0  0  0  0  0  0
   -3.7268   -1.5102    6.0486 C   0  0  0  0  0  0  0  0  0  0  0  0
   -4.7874   -2.4202    5.5043 C   0  0  0  0  0  0  0  0  0  0  0  0
   -4.9533   -3.3075    6.6928 C   0  0  0  0  0  0  0  0  0  0  0  0
   -3.4671   -3.7388    7.0433 C   0  0  0  0  0  0  0  0  0  0  0  0
    6.7965   -0.5873    8.1990 H   0  0  0  0  0  0  0  0  0  0  0  0
    7.9538   -1.6382    8.9337 H   0  0  0  0  0  0  0  0  0  0  0  0
    6.9866   -0.8839   10.1401 H   0  0  0  0  0  0  0  0  0  0  0  0
    6.9252   -4.9628    9.3341 H   0  0  0  0  0  0  0  0  0  0  0  0
    8.1021   -3.6971    9.1243 H   0  0  0  0  0  0  0  0  0  0  0  0
    4.3756   -4.1381   12.0012 H   0  0  0  0  0  0  0  0  0  0  0  0
    5.1646   -3.5203   14.4428 H   0  0  0  0  0  0  0  0  0  0  0  0
    7.2832   -2.0404   14.3477 H   0  0  0  0  0  0  0  0  0  0  0  0
    3.3030   -1.9806    6.7974 H   0  0  0  0  0  0  0  0  0  0  0  0
   -0.2589   -0.7544    5.1984 H   0  0  0  0  0  0  0  0  0  0  0  0
   -2.6321    0.5214    6.9868 H   0  0  0  0  0  0  0  0  0  0  0  0
   -3.2220   -2.1086    8.1350 H   0  0  0  0  0  0  0  0  0  0  0  0
   -4.2516   -0.7058    6.5832 H   0  0  0  0  0  0  0  0  0  0  0  0
   -3.1595   -1.0739    5.2250 H   0  0  0  0  0  0  0  0  0  0  0  0
   -5.7020   -1.8853    5.2344 H   0  0  0  0  0  0  0  0  0  0  0  0
   -4.4380   -2.9822    4.6329 H   0  0  0  0  0  0  0  0  0  0  0  0
   -5.3854   -2.7184    7.5088 H   0  0  0  0  0  0  0  0  0  0  0  0
   -5.6955   -4.0770    6.4805 H   0  0  0  0  0  0  0  0  0  0  0  0
   -3.4524   -4.2737    7.9805 H   0  0  0  0  0  0  0  0  0  0  0  0
   -2.9825   -4.3559    6.2936 H   0  0  0  0  0  0  0  0  0  0  0  0
  1  2  1  0
  2  3  1  0
  3  4  1  0
  4  5  2  0
  5  6  1  0
  6  7  1  0
  7  8  2  0
  2  9  1  0
  9 10  2  0
  9 11  1  0
 11 12  1  0
 12 13  2  0
 13 14  1  0
 14 15  2  0
 15 16  1  0
 16 17  1  0
 17 18  1  0
 18 19  1  0
 19 20  1  0
 20 21  1  0
  8  4  1  0
 16 12  1  0
 21 17  1  0
  1 22  1  0
  1 23  1  0
  1 24  1  0
  3 25  1  0
  3 26  1  0
  5 27  1  0
  6 28  1  0
  7 29  1  0
 11 30  1  0
 13 31  1  0
 14 32  1  0
 17 33  1  0
 18 34  1  0
 18 35  1  0
 19 36  1  0
 19 37  1  0
 20 38  1  0
 20 39  1  0
 21 40  1  0
 21 41  1  0
M  END
>  <Energy>  (645) 
1395.7273308110252

>  <compound_id>  (645) 
48749

>  <target_id>  (645) 
1

>  <reference_id>  (645) 
127

>  <inspiration_ids>  (645) 
[127, 80]

>  <energy_score>  (645) 
1355.4468913574776

>  <distance_score>  (645) 
7.073205697734199

>  <path>  (645) 
/opt/xchem-fragalysis-2/maxwin/BulkDock/SCRATCH/511025/C48749-P127/C48749-P127.minimised.mol

>  <scratch_subdir>  (645) 
/opt/xchem-fragalysis-2/maxwin/BulkDock/SCRATCH/511025/C48749-P127

>  <fragmenstein_runtime>  (645) 
19.731839895248413

>  <fragmenstein_outcome>  (645) 
too moved

>  <fragmenstein_mode>  (645) 
expansion

>  <fragmenstein_error>  (645) 


$$$$
C48749-P80
     RDKit          3D

 41 43  0  0  0  0  0  0  0  0999 V2000
    2.4575   -4.0401   12.1763 C   0  0  0  0  0  0  0  0  0  0  0  0
    2.5609   -2.6439   10.9550 N   0  0  0  0  0  0  0  0  0  0  0  0
    3.6791   -3.4635   10.8697 C   0  0  0  0  0  0  0  0  0  0  0  0
    4.8076   -3.2791   12.3529 C   0  0  0  0  0  0  0  0  0  0  0  0
    4.6171   -3.6872   13.6784 C   0  0  0  0  0  0  0  0  0  0  0  0
    5.6170   -3.1338   14.4794 N   0  0  0  0  0  0  0  0  0  0  0  0
    6.5040   -2.3478   13.8115 C   0  0  0  0  0  0  0  0  0  0  0  0
    6.0609   -2.2354   12.5700 N   0  0  0  0  0  0  0  0  0  0  0  0
    1.2755   -2.1138    9.6479 C   0  0  0  0  0  0  0  0  0  0  0  0
    1.3697   -2.6159    8.5667 O   0  0  0  0  0  0  0  0  0  0  0  0
    0.0017   -1.1138   10.1502 N   0  0  0  0  0  0  0  0  0  0  0  0
   -1.6764   -0.6505    9.2480 C   0  0  0  0  0  0  0  0  0  0  0  0
   -2.4013    0.5242    8.8676 C   0  0  0  0  0  0  0  0  0  0  0  0
   -3.7640    0.4397    8.9279 C   0  0  0  0  0  0  0  0  0  0  0  0
   -4.0785   -0.6826    9.4742 N   0  0  0  0  0  0  0  0  0  0  0  0
   -3.1532   -1.4905    8.7274 N   0  0  0  0  0  0  0  0  0  0  0  0
   -4.3025   -1.6919    7.5555 C   0  0  0  0  0  0  0  0  0  0  0  0
   -5.4760   -0.6382    7.1238 C   0  0  0  0  0  0  0  0  0  0  0  0
   -6.6022   -1.4542    6.4614 C   0  0  0  0  0  0  0  0  0  0  0  0
   -6.3276   -2.9224    6.7598 C   0  0  0  0  0  0  0  0  0  0  0  0
   -4.7996   -3.0180    6.9195 C   0  0  0  0  0  0  0  0  0  0  0  0
    2.1854   -3.7243   13.1994 H   0  0  0  0  0  0  0  0  0  0  0  0
    2.1343   -4.9558   11.8140 H   0  0  0  0  0  0  0  0  0  0  0  0
    3.3171   -4.6750   12.4304 H   0  0  0  0  0  0  0  0  0  0  0  0
    3.7302   -4.5923   10.7703 H   0  0  0  0  0  0  0  0  0  0  0  0
    3.5600   -3.5966    9.7684 H   0  0  0  0  0  0  0  0  0  0  0  0
    3.9241   -4.3499   14.1857 H   0  0  0  0  0  0  0  0  0  0  0  0
    5.7745   -3.5652   15.3486 H   0  0  0  0  0  0  0  0  0  0  0  0
    7.4324   -1.9713   14.2160 H   0  0  0  0  0  0  0  0  0  0  0  0
    0.2068   -0.7619   11.0681 H   0  0  0  0  0  0  0  0  0  0  0  0
   -2.0795    1.5254    8.6756 H   0  0  0  0  0  0  0  0  0  0  0  0
   -4.5265    1.1076    8.5982 H   0  0  0  0  0  0  0  0  0  0  0  0
   -4.9800   -1.9625    8.3667 H   0  0  0  0  0  0  0  0  0  0  0  0
   -5.1300    0.1687    6.4747 H   0  0  0  0  0  0  0  0  0  0  0  0
   -5.9683   -0.1714    7.9862 H   0  0  0  0  0  0  0  0  0  0  0  0
   -6.6359   -1.2685    5.3859 H   0  0  0  0  0  0  0  0  0  0  0  0
   -7.5843   -1.1568    6.8466 H   0  0  0  0  0  0  0  0  0  0  0  0
   -6.8837   -3.2349    7.6381 H   0  0  0  0  0  0  0  0  0  0  0  0
   -6.6840   -3.5604    5.9424 H   0  0  0  0  0  0  0  0  0  0  0  0
   -4.3679   -3.8576    7.4384 H   0  0  0  0  0  0  0  0  0  0  0  0
   -4.5672   -3.1516    5.8844 H   0  0  0  0  0  0  0  0  0  0  0  0
  1  2  1  0
  2  3  1  0
  3  4  1  0
  4  5  2  0
  5  6  1  0
  6  7  1  0
  7  8  2  0
  2  9  1  0
  9 10  2  0
  9 11  1  0
 11 12  1  0
 12 13  2  0
 13 14  1  0
 14 15  2  0
 15 16  1  0
 16 17  1  0
 17 18  1  0
 18 19  1  0
 19 20  1  0
 20 21  1  0
  8  4  1  0
 16 12  1  0
 21 17  1  0
  1 22  1  0
  1 23  1  0
  1 24  1  0
  3 25  1  0
  3 26  1  0
  5 27  1  0
  6 28  1  0
  7 29  1  0
 11 30  1  0
 13 31  1  0
 14 32  1  0
 17 33  1  0
 18 34  1  0
 18 35  1  0
 19 36  1  0
 19 37  1  0
 20 38  1  0
 20 39  1  0
 21 40  1  0
 21 41  1  0
M  END
>  <Energy>  (646) 
788.67803833777623

>  <compound_id>  (646) 
48749

>  <target_id>  (646) 
1

>  <reference_id>  (646) 
80

>  <inspiration_ids>  (646) 
[127, 80]

>  <energy_score>  (646) 
748.3975988842183

>  <distance_score>  (646) 
6.294449436789019

>  <path>  (646) 
/opt/xchem-fragalysis-2/maxwin/BulkDock/SCRATCH/511025/C48749-P80/C48749-P80.minimised.mol

>  <scratch_subdir>  (646) 
/opt/xchem-fragalysis-2/maxwin/BulkDock/SCRATCH/511025/C48749-P80

>  <fragmenstein_runtime>  (646) 
13.537160634994507

>  <fragmenstein_outcome>  (646) 
too moved

>  <fragmenstein_mode>  (646) 
expansion

>  <fragmenstein_error>  (646) 


$$$$
C18000-P127
     RDKit          3D

 36 38  0  0  0  0  0  0  0  0999 V2000
   -0.9577   -0.5888   11.7052 O   0  0  0  0  0  0  0  0  0  0  0  0
   -0.4522   -1.0052   10.6910 C   0  0  0  0  0  0  0  0  0  0  0  0
    1.0554   -1.2896   10.4606 N   0  0  0  0  0  0  0  0  0  0  0  0
    2.2906   -1.0322   11.3777 C   0  0  0  0  0  0  0  0  0  0  0  0
    3.9097   -2.0793   11.6533 C   0  0  0  0  0  0  0  0  0  0  0  0
    3.9837   -3.3504   12.0242 N   0  0  0  0  0  0  0  0  0  0  0  0
    5.0575   -3.4214   12.8723 C   0  0  0  0  0  0  0  0  0  0  0  0
    6.1343   -2.3054   12.8838 C   0  0  0  0  0  0  0  0  0  0  0  0
    5.4338   -1.2486   12.3121 N   0  0  0  0  0  0  0  0  0  0  0  0
   -1.8174   -1.2045    9.1941 C   0  0  0  0  0  0  0  0  0  0  0  0
   -1.9740   -1.0739    7.7566 C   0  0  0  0  0  0  0  0  0  0  0  0
   -2.7581    0.1203    7.5032 C   0  0  0  0  0  0  0  0  0  0  0  0
   -3.3383    0.4896    8.6286 N   0  0  0  0  0  0  0  0  0  0  0  0
   -3.4561   -0.7732    9.1006 N   0  0  0  0  0  0  0  0  0  0  0  0
   -4.6444   -1.3560    8.2633 C   0  0  0  0  0  0  0  0  0  0  0  0
   -5.6335   -0.3473    7.5221 C   0  0  0  0  0  0  0  0  0  0  0  0
   -5.9767   -0.9951    6.1826 C   0  0  0  0  0  0  0  0  0  0  0  0
   -4.7859   -1.8784    5.8636 C   0  0  0  0  0  0  0  0  0  0  0  0
   -4.4476   -2.4837    7.2173 C   0  0  0  0  0  0  0  0  0  0  0  0
    1.1889   -1.5463    9.4933 H   0  0  0  0  0  0  0  0  0  0  0  0
    2.6138    0.0511   11.3476 H   0  0  0  0  0  0  0  0  0  0  0  0
    1.7505   -0.8271   12.3341 H   0  0  0  0  0  0  0  0  0  0  0  0
    4.9333   -4.0433   13.7358 H   0  0  0  0  0  0  0  0  0  0  0  0
    7.0085   -2.1538   13.5012 H   0  0  0  0  0  0  0  0  0  0  0  0
    5.6306   -0.3640   11.8891 H   0  0  0  0  0  0  0  0  0  0  0  0
   -1.3669   -1.4237    6.9551 H   0  0  0  0  0  0  0  0  0  0  0  0
   -2.9969    0.6687    6.6109 H   0  0  0  0  0  0  0  0  0  0  0  0
   -5.3235   -1.6406    9.0259 H   0  0  0  0  0  0  0  0  0  0  0  0
   -5.2495    0.6589    7.3411 H   0  0  0  0  0  0  0  0  0  0  0  0
   -6.5478   -0.2070    8.1134 H   0  0  0  0  0  0  0  0  0  0  0  0
   -6.8819   -1.6055    6.2867 H   0  0  0  0  0  0  0  0  0  0  0  0
   -6.1622   -0.2524    5.4010 H   0  0  0  0  0  0  0  0  0  0  0  0
   -3.9573   -1.2868    5.4651 H   0  0  0  0  0  0  0  0  0  0  0  0
   -5.0345   -2.6449    5.1232 H   0  0  0  0  0  0  0  0  0  0  0  0
   -3.4887   -2.9982    7.2511 H   0  0  0  0  0  0  0  0  0  0  0  0
   -5.2088   -3.2530    7.3805 H   0  0  0  0  0  0  0  0  0  0  0  0
  1  2  2  0
  2  3  1  0
  3  4  1  0
  4  5  1  0
  5  6  2  0
  6  7  1  0
  7  8  2  0
  8  9  1  0
  2 10  1  0
 10 11  2  0
 11 12  1  0
 12 13  2  0
 13 14  1  0
 14 15  1  0
 15 16  1  0
 16 17  1  0
 17 18  1  0
 18 19  1  0
  9  5  1  0
 14 10  1  0
 19 15  1  0
  3 20  1  0
  4 21  1  0
  4 22  1  0
  7 23  1  0
  8 24  1  0
  9 25  1  0
 11 26  1  0
 12 27  1  0
 15 28  1  0
 16 29  1  0
 16 30  1  0
 17 31  1  0
 17 32  1  0
 18 33  1  0
 18 34  1  0
 19 35  1  0
 19 36  1  0
M  END
>  <Energy>  (647) 
392.96290441044954

>  <compound_id>  (647) 
18000

>  <target_id>  (647) 
1

>  <reference_id>  (647) 
127

>  <inspiration_ids>  (647) 
[127, 80]

>  <energy_score>  (647) 
397.4170945174693

>  <distance_score>  (647) 
6.4228857500267695

>  <path>  (647) 
/opt/xchem-fragalysis-2/maxwin/BulkDock/SCRATCH/511025/C18000-P127/C18000-P127.minimised.mol

>  <scratch_subdir>  (647) 
/opt/xchem-fragalysis-2/maxwin/BulkDock/SCRATCH/511025/C18000-P127

>  <fragmenstein_runtime>  (647) 
10.219327926635742

>  <fragmenstein_outcome>  (647) 
too moved

>  <fragmenstein_mode>  (647) 
expansion

>  <fragmenstein_error>  (647) 


$$$$
C18000-P80
     RDKit          3D

 36 38  0  0  0  0  0  0  0  0999 V2000
   -2.1358    1.9465   13.0566 O   0  0  0  0  0  0  0  0  0  0  0  0
   -1.3022    1.1729   12.8699 C   0  0  0  0  0  0  0  0  0  0  0  0
    0.1412    1.3482   13.9547 N   0  0  0  0  0  0  0  0  0  0  0  0
    0.4070    2.2282   15.0905 C   0  0  0  0  0  0  0  0  0  0  0  0
    1.7256    2.8638   15.3128 C   0  0  0  0  0  0  0  0  0  0  0  0
    2.3573    2.8934   16.4793 N   0  0  0  0  0  0  0  0  0  0  0  0
    3.2635    3.9229   16.3830 C   0  0  0  0  0  0  0  0  0  0  0  0
    3.1936    4.5176   15.1465 C   0  0  0  0  0  0  0  0  0  0  0  0
    2.2769    3.7757   14.4457 N   0  0  0  0  0  0  0  0  0  0  0  0
   -1.7425   -0.2472   11.5179 C   0  0  0  0  0  0  0  0  0  0  0  0
   -1.8067   -0.6597    9.6297 C   0  0  0  0  0  0  0  0  0  0  0  0
   -2.2077    0.0929    8.5345 C   0  0  0  0  0  0  0  0  0  0  0  0
   -2.8190    1.0508    9.1216 N   0  0  0  0  0  0  0  0  0  0  0  0
   -3.1236    0.1183   10.0652 N   0  0  0  0  0  0  0  0  0  0  0  0
   -4.4657   -0.6883    9.3151 C   0  0  0  0  0  0  0  0  0  0  0  0
   -4.3688   -1.2502    7.8435 C   0  0  0  0  0  0  0  0  0  0  0  0
   -5.7276   -1.7615    7.3772 C   0  0  0  0  0  0  0  0  0  0  0  0
   -6.7180   -0.9382    8.1349 C   0  0  0  0  0  0  0  0  0  0  0  0
   -5.8978   -0.0678    9.0889 C   0  0  0  0  0  0  0  0  0  0  0  0
    0.7742    0.5668   13.7639 H   0  0  0  0  0  0  0  0  0  0  0  0
    0.1636    1.6545   15.9922 H   0  0  0  0  0  0  0  0  0  0  0  0
   -0.3546    3.0152   15.0340 H   0  0  0  0  0  0  0  0  0  0  0  0
    3.9201    4.1815   17.2014 H   0  0  0  0  0  0  0  0  0  0  0  0
    3.7383    5.3321   14.6935 H   0  0  0  0  0  0  0  0  0  0  0  0
    1.9722    3.9434   13.4968 H   0  0  0  0  0  0  0  0  0  0  0  0
   -2.0678   -1.6474    9.2195 H   0  0  0  0  0  0  0  0  0  0  0  0
   -2.2830   -0.2882    7.5485 H   0  0  0  0  0  0  0  0  0  0  0  0
   -4.4003   -1.5650    9.8438 H   0  0  0  0  0  0  0  0  0  0  0  0
   -3.6411   -2.0563    7.7825 H   0  0  0  0  0  0  0  0  0  0  0  0
   -4.1511   -0.4480    7.1494 H   0  0  0  0  0  0  0  0  0  0  0  0
   -5.8967   -1.6301    6.3080 H   0  0  0  0  0  0  0  0  0  0  0  0
   -5.8436   -2.8331    7.5399 H   0  0  0  0  0  0  0  0  0  0  0  0
   -7.4254   -1.5776    8.6660 H   0  0  0  0  0  0  0  0  0  0  0  0
   -7.3167   -0.3085    7.4666 H   0  0  0  0  0  0  0  0  0  0  0  0
   -6.5367    0.0025    9.9703 H   0  0  0  0  0  0  0  0  0  0  0  0
   -5.8129    0.9048    8.5953 H   0  0  0  0  0  0  0  0  0  0  0  0
  1  2  2  0
  2  3  1  0
  3  4  1  0
  4  5  1  0
  5  6  2  0
  6  7  1  0
  7  8  2  0
  8  9  1  0
  2 10  1  0
 10 11  2  0
 11 12  1  0
 12 13  2  0
 13 14  1  0
 14 15  1  0
 15 16  1  0
 16 17  1  0
 17 18  1  0
 18 19  1  0
  9  5  1  0
 14 10  1  0
 19 15  1  0
  3 20  1  0
  4 21  1  0
  4 22  1  0
  7 23  1  0
  8 24  1  0
  9 25  1  0
 11 26  1  0
 12 27  1  0
 15 28  1  0
 16 29  1  0
 16 30  1  0
 17 31  1  0
 17 32  1  0
 18 33  1  0
 18 34  1  0
 19 35  1  0
 19 36  1  0
M  END
>  <Energy>  (648) 
633.05746742190217

>  <compound_id>  (648) 
18000

>  <target_id>  (648) 
1

>  <reference_id>  (648) 
80

>  <inspiration_ids>  (648) 
[127, 80]

>  <energy_score>  (648) 
637.5116575289255

>  <distance_score>  (648) 
8.02189841031962

>  <path>  (648) 
/opt/xchem-fragalysis-2/maxwin/BulkDock/SCRATCH/511025/C18000-P80/C18000-P80.minimised.mol

>  <scratch_subdir>  (648) 
/opt/xchem-fragalysis-2/maxwin/BulkDock/SCRATCH/511025/C18000-P80

>  <fragmenstein_runtime>  (648) 
10.548104286193848

>  <fragmenstein_outcome>  (648) 
too moved

>  <fragmenstein_mode>  (648) 
expansion

>  <fragmenstein_error>  (648) 


$$$$
C48750-P127
     RDKit          3D

 40 42  0  0  0  0  0  0  0  0999 V2000
   -3.9612   -1.2604    8.7126 C   0  0  0  0  0  0  0  0  0  0  0  0
   -2.9584   -0.2041    8.7674 N   0  0  0  0  0  0  0  0  0  0  0  0
   -1.3772   -1.1299    8.8314 C   0  0  0  0  0  0  0  0  0  0  0  0
    0.4477   -0.8840    9.7987 C   0  0  0  0  0  0  0  0  0  0  0  0
    1.4465   -1.2925   10.7284 C   0  0  0  0  0  0  0  0  0  0  0  0
    2.3688   -0.0692   11.4530 N   0  0  0  0  0  0  0  0  0  0  0  0
    2.5155    0.8835   10.3358 C   0  0  0  0  0  0  0  0  0  0  0  0
    1.6577    0.3772    9.3004 N   0  0  0  0  0  0  0  0  0  0  0  0
   -3.5062    0.7112    7.3975 S   0  0  0  0  0  0  0  0  0  0  0  0
   -3.3149   -0.0904    6.2117 O   0  0  0  0  0  0  0  0  0  0  0  0
   -3.0543    2.0574    7.5863 O   0  0  0  0  0  0  0  0  0  0  0  0
   -5.2953    1.0490    7.2735 C   0  0  0  0  0  0  0  0  0  0  0  0
   -5.9710    2.2583    7.4484 C   0  0  0  0  0  0  0  0  0  0  0  0
   -7.3227    2.0046    7.2122 C   0  0  0  0  0  0  0  0  0  0  0  0
   -7.5161    0.7569    6.8073 N   0  0  0  0  0  0  0  0  0  0  0  0
   -6.2747    0.2112    6.7696 N   0  0  0  0  0  0  0  0  0  0  0  0
   -6.1670   -1.1113    6.1979 C   0  0  0  0  0  0  0  0  0  0  0  0
   -7.2462   -2.0907    6.6607 C   0  0  0  0  0  0  0  0  0  0  0  0
   -7.2274   -3.1990    5.6183 C   0  0  0  0  0  0  0  0  0  0  0  0
   -6.4768   -2.6466    4.4070 C   0  0  0  0  0  0  0  0  0  0  0  0
   -6.3049   -1.1585    4.6793 C   0  0  0  0  0  0  0  0  0  0  0  0
   -4.9907   -0.9112    8.7707 H   0  0  0  0  0  0  0  0  0  0  0  0
   -3.7997   -1.9654    7.8927 H   0  0  0  0  0  0  0  0  0  0  0  0
   -3.8160   -1.7675    9.6098 H   0  0  0  0  0  0  0  0  0  0  0  0
   -1.9162   -2.0306    9.0459 H   0  0  0  0  0  0  0  0  0  0  0  0
   -1.3829   -1.2868    7.7206 H   0  0  0  0  0  0  0  0  0  0  0  0
    2.2161   -2.0152   10.6079 H   0  0  0  0  0  0  0  0  0  0  0  0
    2.1140    0.2511   12.3745 H   0  0  0  0  0  0  0  0  0  0  0  0
    3.1202    1.7815   10.3687 H   0  0  0  0  0  0  0  0  0  0  0  0
   -5.5156    3.1930    7.7500 H   0  0  0  0  0  0  0  0  0  0  0  0
   -8.1689    2.6743    7.2990 H   0  0  0  0  0  0  0  0  0  0  0  0
   -5.2007   -1.5347    6.4576 H   0  0  0  0  0  0  0  0  0  0  0  0
   -7.0587   -2.4664    7.6670 H   0  0  0  0  0  0  0  0  0  0  0  0
   -8.2445   -1.6372    6.6736 H   0  0  0  0  0  0  0  0  0  0  0  0
   -8.2526   -3.4772    5.3543 H   0  0  0  0  0  0  0  0  0  0  0  0
   -6.7277   -4.0926    6.0053 H   0  0  0  0  0  0  0  0  0  0  0  0
   -7.0098   -2.8340    3.4700 H   0  0  0  0  0  0  0  0  0  0  0  0
   -5.4950   -3.1295    4.3312 H   0  0  0  0  0  0  0  0  0  0  0  0
   -5.4320   -0.7441    4.1650 H   0  0  0  0  0  0  0  0  0  0  0  0
   -7.1889   -0.6058    4.3383 H   0  0  0  0  0  0  0  0  0  0  0  0
  1  2  1  0
  2  3  1  0
  3  4  1  0
  4  5  2  0
  5  6  1  0
  6  7  1  0
  7  8  2  0
  2  9  1  0
  9 10  2  0
  9 11  2  0
  9 12  1  0
 12 13  2  0
 13 14  1  0
 14 15  2  0
 15 16  1  0
 16 17  1  0
 17 18  1  0
 18 19  1  0
 19 20  1  0
 20 21  1  0
  8  4  1  0
 16 12  1  0
 21 17  1  0
  1 22  1  0
  1 23  1  0
  1 24  1  0
  3 25  1  0
  3 26  1  0
  5 27  1  0
  6 28  1  0
  7 29  1  0
 13 30  1  0
 14 31  1  0
 17 32  1  0
 18 33  1  0
 18 34  1  0
 19 35  1  0
 19 36  1  0
 20 37  1  0
 20 38  1  0
 21 39  1  0
 21 40  1  0
M  END
>  <Energy>  (649) 
273.21244456519747

>  <compound_id>  (649) 
48750

>  <target_id>  (649) 
1

>  <reference_id>  (649) 
127

>  <inspiration_ids>  (649) 
[127, 80]

>  <energy_score>  (649) 
283.9395389460859

>  <distance_score>  (649) 
7.749118915465178

>  <path>  (649) 
/opt/xchem-fragalysis-2/maxwin/BulkDock/SCRATCH/511025/C48750-P127/C48750-P127.minimised.mol

>  <scratch_subdir>  (649) 
/opt/xchem-fragalysis-2/maxwin/BulkDock/SCRATCH/511025/C48750-P127

>  <fragmenstein_runtime>  (649) 
16.325343132019043

>  <fragmenstein_outcome>  (649) 
too moved

>  <fragmenstein_mode>  (649) 
expansion

>  <fragmenstein_error>  (649) 


$$$$
C48750-P80
     RDKit          3D

 40 42  0  0  0  0  0  0  0  0999 V2000
    0.3243   -1.2146   15.5964 C   0  0  0  0  0  0  0  0  0  0  0  0
    0.4500   -1.3838   13.6533 N   0  0  0  0  0  0  0  0  0  0  0  0
    1.8498   -2.9268   13.7107 C   0  0  0  0  0  0  0  0  0  0  0  0
    3.7037   -3.1804   13.5742 C   0  0  0  0  0  0  0  0  0  0  0  0
    4.8955   -3.0517   14.7365 C   0  0  0  0  0  0  0  0  0  0  0  0
    6.1055   -2.6222   14.2282 N   0  0  0  0  0  0  0  0  0  0  0  0
    5.9246   -2.4554   12.8670 C   0  0  0  0  0  0  0  0  0  0  0  0
    4.6450   -3.0528   12.4010 N   0  0  0  0  0  0  0  0  0  0  0  0
   -1.5821   -0.9501   12.3505 S   0  0  0  0  0  0  0  0  0  0  0  0
   -1.9571   -2.2527   12.9567 O   0  0  0  0  0  0  0  0  0  0  0  0
   -1.3704    0.4528   12.5017 O   0  0  0  0  0  0  0  0  0  0  0  0
   -3.9787   -0.4063   11.7644 C   0  0  0  0  0  0  0  0  0  0  0  0
   -5.6950   -0.2817   12.1374 C   0  0  0  0  0  0  0  0  0  0  0  0
   -6.7005   -0.2059   10.8831 C   0  0  0  0  0  0  0  0  0  0  0  0
   -6.0084   -0.2780    9.7528 N   0  0  0  0  0  0  0  0  0  0  0  0
   -4.5454   -0.5445   10.0425 N   0  0  0  0  0  0  0  0  0  0  0  0
   -4.1268   -1.2640    8.8041 C   0  0  0  0  0  0  0  0  0  0  0  0
   -3.8831   -0.1412    7.9300 C   0  0  0  0  0  0  0  0  0  0  0  0
   -5.2066    0.3113    7.2071 C   0  0  0  0  0  0  0  0  0  0  0  0
   -6.0432   -0.9218    7.0885 C   0  0  0  0  0  0  0  0  0  0  0  0
   -5.1413   -1.9550    7.7245 C   0  0  0  0  0  0  0  0  0  0  0  0
    0.2399   -2.1943   15.9837 H   0  0  0  0  0  0  0  0  0  0  0  0
   -0.1768   -0.5493   16.3184 H   0  0  0  0  0  0  0  0  0  0  0  0
    1.1531   -0.5110   15.8003 H   0  0  0  0  0  0  0  0  0  0  0  0
    1.8412   -3.8959   13.1349 H   0  0  0  0  0  0  0  0  0  0  0  0
    1.5379   -3.4404   14.5567 H   0  0  0  0  0  0  0  0  0  0  0  0
    4.7213   -3.4143   15.7351 H   0  0  0  0  0  0  0  0  0  0  0  0
    6.9727   -2.4620   14.7210 H   0  0  0  0  0  0  0  0  0  0  0  0
    6.6548   -1.9135   12.2597 H   0  0  0  0  0  0  0  0  0  0  0  0
   -6.1442   -0.2663   13.1298 H   0  0  0  0  0  0  0  0  0  0  0  0
   -7.7674   -0.0619   10.8036 H   0  0  0  0  0  0  0  0  0  0  0  0
   -3.2127   -1.8375    8.9218 H   0  0  0  0  0  0  0  0  0  0  0  0
   -3.4265    0.6352    8.5627 H   0  0  0  0  0  0  0  0  0  0  0  0
   -3.1685   -0.5319    7.1992 H   0  0  0  0  0  0  0  0  0  0  0  0
   -5.0419    0.7242    6.2070 H   0  0  0  0  0  0  0  0  0  0  0  0
   -5.7223    1.1014    7.7630 H   0  0  0  0  0  0  0  0  0  0  0  0
   -6.2951   -1.1740    6.0550 H   0  0  0  0  0  0  0  0  0  0  0  0
   -7.0008   -0.8217    7.6093 H   0  0  0  0  0  0  0  0  0  0  0  0
   -5.7892   -2.7785    7.9469 H   0  0  0  0  0  0  0  0  0  0  0  0
   -4.5153   -2.4156    6.9613 H   0  0  0  0  0  0  0  0  0  0  0  0
  1  2  1  0
  2  3  1  0
  3  4  1  0
  4  5  2  0
  5  6  1  0
  6  7  1  0
  7  8  2  0
  2  9  1  0
  9 10  2  0
  9 11  2  0
  9 12  1  0
 12 13  2  0
 13 14  1  0
 14 15  2  0
 15 16  1  0
 16 17  1  0
 17 18  1  0
 18 19  1  0
 19 20  1  0
 20 21  1  0
  8  4  1  0
 16 12  1  0
 21 17  1  0
  1 22  1  0
  1 23  1  0
  1 24  1  0
  3 25  1  0
  3 26  1  0
  5 27  1  0
  6 28  1  0
  7 29  1  0
 13 30  1  0
 14 31  1  0
 17 32  1  0
 18 33  1  0
 18 34  1  0
 19 35  1  0
 19 36  1  0
 20 37  1  0
 20 38  1  0
 21 39  1  0
 21 40  1  0
M  END
>  <Energy>  (650) 
890.93922120945479

>  <compound_id>  (650) 
48750

>  <target_id>  (650) 
1

>  <reference_id>  (650) 
80

>  <inspiration_ids>  (650) 
[127, 80]

>  <energy_score>  (650) 
901.6663155903473

>  <distance_score>  (650) 
5.898466568407938

>  <path>  (650) 
/opt/xchem-fragalysis-2/maxwin/BulkDock/SCRATCH/511025/C48750-P80/C48750-P80.minimised.mol

>  <scratch_subdir>  (650) 
/opt/xchem-fragalysis-2/maxwin/BulkDock/SCRATCH/511025/C48750-P80

>  <fragmenstein_runtime>  (650) 
11.929493427276611

>  <fragmenstein_outcome>  (650) 
too moved

>  <fragmenstein_mode>  (650) 
expansion

>  <fragmenstein_error>  (650) 


$$$$
C18004-P127
     RDKit          3D

 45 46  0  0  0  0  0  0  0  0999 V2000
   -7.8892    0.3036    6.7344 C   0  0  0  0  0  0  0  0  0  0  0  0
   -6.6581    0.3094    5.8299 C   0  0  0  0  0  0  0  0  0  0  0  0
   -5.3660    0.0468    6.6207 C   0  0  0  0  0  0  0  0  0  0  0  0
   -5.2599   -1.2463    7.4204 C   0  0  0  0  0  0  0  0  0  0  0  0
   -5.6597   -2.4516    6.5858 C   0  0  0  0  0  0  0  0  0  0  0  0
   -3.9146   -1.3939    7.9989 N   0  0  0  0  0  0  0  0  0  0  0  0
   -2.9947   -0.3967    8.5540 C   0  0  0  0  0  0  0  0  0  0  0  0
   -3.0800    0.7864    8.5991 O   0  0  0  0  0  0  0  0  0  0  0  0
   -1.6999   -1.1935    9.1734 C   0  0  0  0  0  0  0  0  0  0  0  0
   -0.3042   -0.9966   10.5868 N   0  0  0  0  0  0  0  0  0  0  0  0
   -0.5272   -0.5131   12.1278 C   0  0  0  0  0  0  0  0  0  0  0  0
    0.7753   -0.4196   12.7526 C   0  0  0  0  0  0  0  0  0  0  0  0
    1.7104   -0.7594   11.6964 C   0  0  0  0  0  0  0  0  0  0  0  0
    1.1717   -1.2911   10.4834 N   0  0  0  0  0  0  0  0  0  0  0  0
   -6.4529    1.6086    5.2299 N   0  0  0  0  0  0  0  0  0  0  0  0
   -7.3742    2.5125    4.5973 C   0  0  0  0  0  0  0  0  0  0  0  0
   -8.5351    2.3878    4.3333 O   0  0  0  0  0  0  0  0  0  0  0  0
   -6.6615    3.8548    4.3558 C   0  0  0  0  0  0  0  0  0  0  0  0
   -5.9116    4.1971    5.6104 C   0  0  0  0  0  0  0  0  0  0  0  0
   -4.6115    4.0547    5.8075 N   0  0  0  0  0  0  0  0  0  0  0  0
   -4.4308    4.1982    7.1679 C   0  0  0  0  0  0  0  0  0  0  0  0
   -5.6309    4.4282    7.7917 C   0  0  0  0  0  0  0  0  0  0  0  0
   -6.5623    4.4501    6.7954 N   0  0  0  0  0  0  0  0  0  0  0  0
   -8.7984    0.5170    6.1633 H   0  0  0  0  0  0  0  0  0  0  0  0
   -7.8078    1.0640    7.5195 H   0  0  0  0  0  0  0  0  0  0  0  0
   -8.0334   -0.6677    7.2162 H   0  0  0  0  0  0  0  0  0  0  0  0
   -6.7834   -0.4074    5.0126 H   0  0  0  0  0  0  0  0  0  0  0  0
   -5.2113    0.8902    7.3080 H   0  0  0  0  0  0  0  0  0  0  0  0
   -4.5183    0.0887    5.9197 H   0  0  0  0  0  0  0  0  0  0  0  0
   -5.9321   -1.1774    8.2826 H   0  0  0  0  0  0  0  0  0  0  0  0
   -5.5249   -3.3758    7.1461 H   0  0  0  0  0  0  0  0  0  0  0  0
   -5.0365   -2.5291    5.6876 H   0  0  0  0  0  0  0  0  0  0  0  0
   -6.7070   -2.4138    6.2744 H   0  0  0  0  0  0  0  0  0  0  0  0
   -3.4862   -2.3096    8.0571 H   0  0  0  0  0  0  0  0  0  0  0  0
   -2.2485   -2.0679    9.4172 H   0  0  0  0  0  0  0  0  0  0  0  0
   -1.2467   -1.5107    8.2918 H   0  0  0  0  0  0  0  0  0  0  0  0
   -1.4975   -0.1349   12.3461 H   0  0  0  0  0  0  0  0  0  0  0  0
    1.0293    0.1278   13.6443 H   0  0  0  0  0  0  0  0  0  0  0  0
    2.6691   -0.2839   11.7071 H   0  0  0  0  0  0  0  0  0  0  0  0
   -5.5191    2.0207    5.2155 H   0  0  0  0  0  0  0  0  0  0  0  0
   -7.4031    4.6280    4.1316 H   0  0  0  0  0  0  0  0  0  0  0  0
   -5.9840    3.7520    3.5026 H   0  0  0  0  0  0  0  0  0  0  0  0
   -3.4516    4.1191    7.6297 H   0  0  0  0  0  0  0  0  0  0  0  0
   -5.8908    4.5833    8.8285 H   0  0  0  0  0  0  0  0  0  0  0  0
   -7.5631    4.5447    6.9148 H   0  0  0  0  0  0  0  0  0  0  0  0
  1  2  1  0
  2  3  1  0
  3  4  1  0
  4  5  1  0
  4  6  1  0
  6  7  1  0
  7  8  2  0
  7  9  1  0
  9 10  1  0
 10 11  1  0
 11 12  2  0
 12 13  1  0
 13 14  2  0
  2 15  1  0
 15 16  1  0
 16 17  2  0
 16 18  1  0
 18 19  1  0
 19 20  2  0
 20 21  1  0
 21 22  2  0
 22 23  1  0
 14 10  1  0
 23 19  1  0
  1 24  1  0
  1 25  1  0
  1 26  1  0
  2 27  1  0
  3 28  1  0
  3 29  1  0
  4 30  1  0
  5 31  1  0
  5 32  1  0
  5 33  1  0
  6 34  1  0
  9 35  1  0
  9 36  1  0
 11 37  1  0
 12 38  1  0
 13 39  1  0
 15 40  1  0
 18 41  1  0
 18 42  1  0
 21 43  1  0
 22 44  1  0
 23 45  1  0
M  END
>  <Energy>  (651) 
208.20872998679934

>  <compound_id>  (651) 
18004

>  <target_id>  (651) 
1

>  <reference_id>  (651) 
127

>  <inspiration_ids>  (651) 
[127, 80]

>  <energy_score>  (651) 
153.43105705518678

>  <distance_score>  (651) 
8.510207627828045

>  <path>  (651) 
/opt/xchem-fragalysis-2/maxwin/BulkDock/SCRATCH/511025/C18004-P127/C18004-P127.minimised.mol

>  <scratch_subdir>  (651) 
/opt/xchem-fragalysis-2/maxwin/BulkDock/SCRATCH/511025/C18004-P127

>  <fragmenstein_runtime>  (651) 
42.0119514465332

>  <fragmenstein_outcome>  (651) 
too moved

>  <fragmenstein_mode>  (651) 
expansion

>  <fragmenstein_error>  (651) 


$$$$
C18004-P80
     RDKit          3D

 45 46  0  0  0  0  0  0  0  0999 V2000
   -3.8686   -2.2649    7.8764 C   0  0  0  0  0  0  0  0  0  0  0  0
   -3.4004   -1.0462    8.6690 C   0  0  0  0  0  0  0  0  0  0  0  0
   -1.7320   -0.7337    9.2315 C   0  0  0  0  0  0  0  0  0  0  0  0
   -0.0337   -1.0446   10.4071 C   0  0  0  0  0  0  0  0  0  0  0  0
   -0.9732   -0.6136   12.0792 C   0  0  0  0  0  0  0  0  0  0  0  0
    1.5097   -0.8246   10.5339 N   0  0  0  0  0  0  0  0  0  0  0  0
    2.5296    0.6292   10.1534 C   0  0  0  0  0  0  0  0  0  0  0  0
    2.2180    1.7034    9.6228 O   0  0  0  0  0  0  0  0  0  0  0  0
    4.0900    0.6479   10.6800 C   0  0  0  0  0  0  0  0  0  0  0  0
    5.2575   -0.4799   11.1289 N   0  0  0  0  0  0  0  0  0  0  0  0
    5.9558   -0.8770   12.3780 C   0  0  0  0  0  0  0  0  0  0  0  0
    7.0994   -1.5177   12.3788 C   0  0  0  0  0  0  0  0  0  0  0  0
    7.3329   -1.3092   11.0758 C   0  0  0  0  0  0  0  0  0  0  0  0
    6.6435   -0.4540   10.3556 N   0  0  0  0  0  0  0  0  0  0  0  0
   -4.5229   -0.0818    8.5962 N   0  0  0  0  0  0  0  0  0  0  0  0
   -5.9596   -0.2962    8.4347 C   0  0  0  0  0  0  0  0  0  0  0  0
   -6.6021   -1.3111    8.4036 O   0  0  0  0  0  0  0  0  0  0  0  0
   -6.7594    0.9648    8.1579 C   0  0  0  0  0  0  0  0  0  0  0  0
   -6.3687    1.4697    6.8237 C   0  0  0  0  0  0  0  0  0  0  0  0
   -5.4771    2.4106    6.5773 N   0  0  0  0  0  0  0  0  0  0  0  0
   -5.5168    2.5826    5.2151 C   0  0  0  0  0  0  0  0  0  0  0  0
   -6.3935    1.6979    4.6347 C   0  0  0  0  0  0  0  0  0  0  0  0
   -6.9073    0.9683    5.6658 N   0  0  0  0  0  0  0  0  0  0  0  0
   -3.2050   -3.1179    7.8819 H   0  0  0  0  0  0  0  0  0  0  0  0
   -4.1417   -1.9237    6.8954 H   0  0  0  0  0  0  0  0  0  0  0  0
   -4.8934   -2.6073    7.9706 H   0  0  0  0  0  0  0  0  0  0  0  0
   -3.0360   -0.6074    7.7226 H   0  0  0  0  0  0  0  0  0  0  0  0
   -1.5060   -1.3737    8.3745 H   0  0  0  0  0  0  0  0  0  0  0  0
   -1.8805    0.3162    9.0010 H   0  0  0  0  0  0  0  0  0  0  0  0
    0.3527   -0.6897   11.3275 H   0  0  0  0  0  0  0  0  0  0  0  0
   -0.1362   -0.5275   12.8396 H   0  0  0  0  0  0  0  0  0  0  0  0
   -1.6321   -1.3947   12.4091 H   0  0  0  0  0  0  0  0  0  0  0  0
   -1.3860    0.3495   12.2707 H   0  0  0  0  0  0  0  0  0  0  0  0
    2.0378   -1.4973   11.0380 H   0  0  0  0  0  0  0  0  0  0  0  0
    3.9932    1.2832   11.5756 H   0  0  0  0  0  0  0  0  0  0  0  0
    4.6196    1.2186    9.8947 H   0  0  0  0  0  0  0  0  0  0  0  0
    5.6083   -0.4849   13.2358 H   0  0  0  0  0  0  0  0  0  0  0  0
    7.5459   -2.0209   13.2179 H   0  0  0  0  0  0  0  0  0  0  0  0
    7.9135   -1.8347   10.3746 H   0  0  0  0  0  0  0  0  0  0  0  0
   -4.3218    0.9004    8.4906 H   0  0  0  0  0  0  0  0  0  0  0  0
   -6.6289    1.7374    8.8889 H   0  0  0  0  0  0  0  0  0  0  0  0
   -7.8284    0.7173    8.1726 H   0  0  0  0  0  0  0  0  0  0  0  0
   -4.9019    3.3251    4.7204 H   0  0  0  0  0  0  0  0  0  0  0  0
   -6.6697    1.5164    3.6052 H   0  0  0  0  0  0  0  0  0  0  0  0
   -7.5803    0.2138    5.5979 H   0  0  0  0  0  0  0  0  0  0  0  0
  1  2  1  0
  2  3  1  0
  3  4  1  0
  4  5  1  0
  4  6  1  0
  6  7  1  0
  7  8  2  0
  7  9  1  0
  9 10  1  0
 10 11  1  0
 11 12  2  0
 12 13  1  0
 13 14  2  0
  2 15  1  0
 15 16  1  0
 16 17  2  0
 16 18  1  0
 18 19  1  0
 19 20  2  0
 20 21  1  0
 21 22  2  0
 22 23  1  0
 14 10  1  0
 23 19  1  0
  1 24  1  0
  1 25  1  0
  1 26  1  0
  2 27  1  0
  3 28  1  0
  3 29  1  0
  4 30  1  0
  5 31  1  0
  5 32  1  0
  5 33  1  0
  6 34  1  0
  9 35  1  0
  9 36  1  0
 11 37  1  0
 12 38  1  0
 13 39  1  0
 15 40  1  0
 18 41  1  0
 18 42  1  0
 21 43  1  0
 22 44  1  0
 23 45  1  0
M  END
>  <Energy>  (652) 
591.94933251075008

>  <compound_id>  (652) 
18004

>  <target_id>  (652) 
1

>  <reference_id>  (652) 
80

>  <inspiration_ids>  (652) 
[127, 80]

>  <energy_score>  (652) 
537.171659579132

>  <distance_score>  (652) 
7.706458800783484

>  <path>  (652) 
/opt/xchem-fragalysis-2/maxwin/BulkDock/SCRATCH/511025/C18004-P80/C18004-P80.minimised.mol

>  <scratch_subdir>  (652) 
/opt/xchem-fragalysis-2/maxwin/BulkDock/SCRATCH/511025/C18004-P80

>  <fragmenstein_runtime>  (652) 
43.09577488899231

>  <fragmenstein_outcome>  (652) 
too moved

>  <fragmenstein_mode>  (652) 
expansion

>  <fragmenstein_error>  (652) 


$$$$
C51669-P59
     RDKit          3D

 51 54  0  0  0  0  0  0  0  0999 V2000
   -2.8955    0.0653   34.3094 C   0  0  0  0  0  0  0  0  0  0  0  0
   -2.9024   -1.0302   33.2580 C   0  0  0  0  0  0  0  0  0  0  0  0
   -4.3261   -1.5337   33.0363 C   0  0  0  0  0  0  0  0  0  0  0  0
   -2.1933   -0.5960   32.0157 C   0  0  0  0  0  0  0  0  0  0  0  0
   -0.8053   -0.7212   31.7738 C   0  0  0  0  0  0  0  0  0  0  0  0
   -0.8388   -0.9614   30.4244 C   0  0  0  0  0  0  0  0  0  0  0  0
   -0.6184   -2.1884   29.9248 N   0  0  0  0  0  0  0  0  0  0  0  0
   -0.4791   -3.5452   30.6352 C   0  0  0  0  0  0  0  0  0  0  0  0
   -0.4564   -3.8044   31.7707 O   0  0  0  0  0  0  0  0  0  0  0  0
   -0.4232   -4.6068   29.5680 C   0  0  0  0  0  0  0  0  0  0  0  0
   -0.5694   -5.9091   30.2161 O   0  0  0  0  0  0  0  0  0  0  0  0
    0.4290   -6.4135   30.9968 C   0  0  0  0  0  0  0  0  0  0  0  0
    0.2912   -7.2058   31.9090 O   0  0  0  0  0  0  0  0  0  0  0  0
    1.7248   -5.9439   30.5148 C   0  0  0  0  0  0  0  0  0  0  0  0
    2.2562   -4.7507   30.9855 C   0  0  0  0  0  0  0  0  0  0  0  0
    3.0509   -4.0015   30.1275 C   0  0  0  0  0  0  0  0  0  0  0  0
    3.3521   -4.5513   28.8710 C   0  0  0  0  0  0  0  0  0  0  0  0
    4.0953   -4.0216   27.8443 N   0  0  0  0  0  0  0  0  0  0  0  0
    4.4012   -5.0188   26.9660 C   0  0  0  0  0  0  0  0  0  0  0  0
    3.6397   -6.1256   27.2500 C   0  0  0  0  0  0  0  0  0  0  0  0
    2.9682   -5.8336   28.4653 C   0  0  0  0  0  0  0  0  0  0  0  0
    2.1214   -6.5373   29.3096 C   0  0  0  0  0  0  0  0  0  0  0  0
    3.8370   -7.3591   26.4359 C   0  0  0  0  0  0  0  0  0  0  0  0
    5.3356   -7.5364   26.1567 C   0  0  0  0  0  0  0  0  0  0  0  0
    5.8614   -6.3224   25.3707 C   0  0  0  0  0  0  0  0  0  0  0  0
    5.5410   -4.9555   26.0106 C   0  0  0  0  0  0  0  0  0  0  0  0
   -1.8787   -0.2817   29.8875 O   0  0  0  0  0  0  0  0  0  0  0  0
   -2.8298   -0.1897   30.9099 N   0  0  0  0  0  0  0  0  0  0  0  0
   -1.8750    0.4007   34.5269 H   0  0  0  0  0  0  0  0  0  0  0  0
   -3.4675    0.9424   33.9916 H   0  0  0  0  0  0  0  0  0  0  0  0
   -3.3314   -0.2925   35.2487 H   0  0  0  0  0  0  0  0  0  0  0  0
   -2.3371   -1.8781   33.6703 H   0  0  0  0  0  0  0  0  0  0  0  0
   -4.7362   -1.9441   33.9654 H   0  0  0  0  0  0  0  0  0  0  0  0
   -4.9924   -0.7265   32.7172 H   0  0  0  0  0  0  0  0  0  0  0  0
   -4.3526   -2.3268   32.2814 H   0  0  0  0  0  0  0  0  0  0  0  0
   -0.1083   -1.1566   32.4773 H   0  0  0  0  0  0  0  0  0  0  0  0
   -0.6837   -2.3360   28.9214 H   0  0  0  0  0  0  0  0  0  0  0  0
    0.4782   -4.4997   28.9682 H   0  0  0  0  0  0  0  0  0  0  0  0
   -1.2416   -4.4561   28.8687 H   0  0  0  0  0  0  0  0  0  0  0  0
    1.9493   -4.3400   31.9453 H   0  0  0  0  0  0  0  0  0  0  0  0
    3.4174   -3.0212   30.4199 H   0  0  0  0  0  0  0  0  0  0  0  0
    4.5440   -3.1153   27.8738 H   0  0  0  0  0  0  0  0  0  0  0  0
    1.7538   -7.5214   29.0433 H   0  0  0  0  0  0  0  0  0  0  0  0
    3.4106   -8.2387   26.9089 H   0  0  0  0  0  0  0  0  0  0  0  0
    3.3445   -7.2454   25.4670 H   0  0  0  0  0  0  0  0  0  0  0  0
    5.8927   -7.6413   27.0961 H   0  0  0  0  0  0  0  0  0  0  0  0
    5.4990   -8.4502   25.5761 H   0  0  0  0  0  0  0  0  0  0  0  0
    6.9434   -6.4135   25.2190 H   0  0  0  0  0  0  0  0  0  0  0  0
    5.4190   -6.3564   24.3702 H   0  0  0  0  0  0  0  0  0  0  0  0
    5.3315   -4.2098   25.2406 H   0  0  0  0  0  0  0  0  0  0  0  0
    6.4251   -4.6239   26.5686 H   0  0  0  0  0  0  0  0  0  0  0  0
  1  2  1  0
  2  3  1  0
  2  4  1  0
  4  5  1  0
  5  6  2  0
  6  7  1  0
  7  8  1  0
  8  9  2  0
  8 10  1  0
 10 11  1  0
 11 12  1  0
 12 13  2  0
 12 14  1  0
 14 15  2  0
 15 16  1  0
 16 17  2  0
 17 18  1  0
 18 19  1  0
 19 20  2  0
 20 21  1  0
 21 22  2  0
 20 23  1  0
 23 24  1  0
 24 25  1  0
 25 26  1  0
  6 27  1  0
 27 28  1  0
 28  4  2  0
 22 14  1  0
 21 17  1  0
 26 19  1  0
  1 29  1  0
  1 30  1  0
  1 31  1  0
  2 32  1  0
  3 33  1  0
  3 34  1  0
  3 35  1  0
  5 36  1  0
  7 37  1  0
 10 38  1  0
 10 39  1  0
 15 40  1  0
 16 41  1  0
 18 42  1  0
 22 43  1  0
 23 44  1  0
 23 45  1  0
 24 46  1  0
 24 47  1  0
 25 48  1  0
 25 49  1  0
 26 50  1  0
 26 51  1  0
M  END
>  <Energy>  (653) 
123.17837499590861

>  <compound_id>  (653) 
51669

>  <target_id>  (653) 
1

>  <reference_id>  (653) 
59

>  <inspiration_ids>  (653) 
[59, 40]

>  <energy_score>  (653) 
25.9650361351799

>  <distance_score>  (653) 
2.1876376601879257

>  <path>  (653) 
/opt/xchem-fragalysis-2/maxwin/BulkDock/SCRATCH/511025/C51669-P59/C51669-P59.minimised.mol

>  <scratch_subdir>  (653) 
/opt/xchem-fragalysis-2/maxwin/BulkDock/SCRATCH/511025/C51669-P59

>  <fragmenstein_runtime>  (653) 
7.290490627288818

>  <fragmenstein_outcome>  (653) 
too moved

>  <fragmenstein_mode>  (653) 
expansion

>  <fragmenstein_error>  (653) 


$$$$
C51669-P40
     RDKit          3D

 51 54  0  0  0  0  0  0  0  0999 V2000
   -3.1304    0.4484   34.7473 C   0  0  0  0  0  0  0  0  0  0  0  0
   -3.3507   -0.8032   33.9154 C   0  0  0  0  0  0  0  0  0  0  0  0
   -4.8586   -1.0317   33.7449 C   0  0  0  0  0  0  0  0  0  0  0  0
   -2.6124   -0.7638   32.6246 C   0  0  0  0  0  0  0  0  0  0  0  0
   -2.8090   -1.6530   31.5683 C   0  0  0  0  0  0  0  0  0  0  0  0
   -1.7365   -1.4275   30.7724 C   0  0  0  0  0  0  0  0  0  0  0  0
   -1.2901   -2.2546   29.8325 N   0  0  0  0  0  0  0  0  0  0  0  0
    0.0465   -2.2767   29.0757 C   0  0  0  0  0  0  0  0  0  0  0  0
    0.9376   -1.5315   29.0983 O   0  0  0  0  0  0  0  0  0  0  0  0
   -0.0481   -3.6004   28.3490 C   0  0  0  0  0  0  0  0  0  0  0  0
   -0.7094   -4.6398   29.1532 O   0  0  0  0  0  0  0  0  0  0  0  0
   -0.2530   -5.1658   30.3272 C   0  0  0  0  0  0  0  0  0  0  0  0
   -0.9570   -5.6242   31.2084 O   0  0  0  0  0  0  0  0  0  0  0  0
    1.1873   -5.2092   30.3583 C   0  0  0  0  0  0  0  0  0  0  0  0
    1.8044   -4.1058   30.9290 C   0  0  0  0  0  0  0  0  0  0  0  0
    2.9233   -3.6053   30.2920 C   0  0  0  0  0  0  0  0  0  0  0  0
    3.3402   -4.2665   29.1308 C   0  0  0  0  0  0  0  0  0  0  0  0
    4.2266   -3.8426   28.1708 N   0  0  0  0  0  0  0  0  0  0  0  0
    4.4191   -4.8362   27.2623 C   0  0  0  0  0  0  0  0  0  0  0  0
    3.6330   -5.9062   27.6115 C   0  0  0  0  0  0  0  0  0  0  0  0
    2.8452   -5.5052   28.7120 C   0  0  0  0  0  0  0  0  0  0  0  0
    1.7422   -6.0343   29.3721 C   0  0  0  0  0  0  0  0  0  0  0  0
    3.8080   -7.2111   26.9451 C   0  0  0  0  0  0  0  0  0  0  0  0
    4.4646   -7.0889   25.5712 C   0  0  0  0  0  0  0  0  0  0  0  0
    5.7073   -6.1846   25.6155 C   0  0  0  0  0  0  0  0  0  0  0  0
    5.3977   -4.7740   26.1433 C   0  0  0  0  0  0  0  0  0  0  0  0
   -1.0151   -0.3732   31.1996 O   0  0  0  0  0  0  0  0  0  0  0  0
   -1.5788    0.0626   32.3944 N   0  0  0  0  0  0  0  0  0  0  0  0
   -3.6605    0.3796   35.7041 H   0  0  0  0  0  0  0  0  0  0  0  0
   -2.0698    0.5970   34.9800 H   0  0  0  0  0  0  0  0  0  0  0  0
   -3.4889    1.3478   34.2346 H   0  0  0  0  0  0  0  0  0  0  0  0
   -2.9554   -1.6514   34.4908 H   0  0  0  0  0  0  0  0  0  0  0  0
   -5.3606   -1.0577   34.7185 H   0  0  0  0  0  0  0  0  0  0  0  0
   -5.3207   -0.2381   33.1490 H   0  0  0  0  0  0  0  0  0  0  0  0
   -5.0685   -1.9859   33.2499 H   0  0  0  0  0  0  0  0  0  0  0  0
   -3.5128   -2.4663   31.5091 H   0  0  0  0  0  0  0  0  0  0  0  0
   -1.8739   -3.0218   29.5122 H   0  0  0  0  0  0  0  0  0  0  0  0
   -0.7308   -3.4101   27.5351 H   0  0  0  0  0  0  0  0  0  0  0  0
    0.8974   -3.9257   27.9295 H   0  0  0  0  0  0  0  0  0  0  0  0
    1.3175   -3.5130   31.7012 H   0  0  0  0  0  0  0  0  0  0  0  0
    3.3520   -2.6506   30.5875 H   0  0  0  0  0  0  0  0  0  0  0  0
    4.7019   -2.9489   28.1824 H   0  0  0  0  0  0  0  0  0  0  0  0
    1.2072   -6.8873   28.9733 H   0  0  0  0  0  0  0  0  0  0  0  0
    4.5071   -7.7466   27.5914 H   0  0  0  0  0  0  0  0  0  0  0  0
    2.8761   -7.7723   26.8833 H   0  0  0  0  0  0  0  0  0  0  0  0
    4.7420   -8.0837   25.2068 H   0  0  0  0  0  0  0  0  0  0  0  0
    3.7325   -6.6834   24.8748 H   0  0  0  0  0  0  0  0  0  0  0  0
    6.4548   -6.6535   26.2691 H   0  0  0  0  0  0  0  0  0  0  0  0
    6.1612   -6.1161   24.6208 H   0  0  0  0  0  0  0  0  0  0  0  0
    4.9757   -4.1573   25.3449 H   0  0  0  0  0  0  0  0  0  0  0  0
    6.3244   -4.2978   26.4784 H   0  0  0  0  0  0  0  0  0  0  0  0
  1  2  1  0
  2  3  1  0
  2  4  1  0
  4  5  1  0
  5  6  2  0
  6  7  1  0
  7  8  1  0
  8  9  2  0
  8 10  1  0
 10 11  1  0
 11 12  1  0
 12 13  2  0
 12 14  1  0
 14 15  2  0
 15 16  1  0
 16 17  2  0
 17 18  1  0
 18 19  1  0
 19 20  2  0
 20 21  1  0
 21 22  2  0
 20 23  1  0
 23 24  1  0
 24 25  1  0
 25 26  1  0
  6 27  1  0
 27 28  1  0
 28  4  2  0
 22 14  1  0
 21 17  1  0
 26 19  1  0
  1 29  1  0
  1 30  1  0
  1 31  1  0
  2 32  1  0
  3 33  1  0
  3 34  1  0
  3 35  1  0
  5 36  1  0
  7 37  1  0
 10 38  1  0
 10 39  1  0
 15 40  1  0
 16 41  1  0
 18 42  1  0
 22 43  1  0
 23 44  1  0
 23 45  1  0
 24 46  1  0
 24 47  1  0
 25 48  1  0
 25 49  1  0
 26 50  1  0
 26 51  1  0
M  END
>  <Energy>  (654) 
93.135834255494402

>  <compound_id>  (654) 
51669

>  <target_id>  (654) 
1

>  <reference_id>  (654) 
40

>  <inspiration_ids>  (654) 
[59, 40]

>  <energy_score>  (654) 
-4.077504605235333

>  <distance_score>  (654) 
2.399094194272529

>  <path>  (654) 
/opt/xchem-fragalysis-2/maxwin/BulkDock/SCRATCH/511025/C51669-P40/C51669-P40.minimised.mol

>  <scratch_subdir>  (654) 
/opt/xchem-fragalysis-2/maxwin/BulkDock/SCRATCH/511025/C51669-P40

>  <fragmenstein_runtime>  (654) 
7.731349468231201

>  <fragmenstein_outcome>  (654) 
too moved

>  <fragmenstein_mode>  (654) 
expansion

>  <fragmenstein_error>  (654) 


$$$$
C84575-P59
     RDKit          3D

 39 42  0  0  0  0  0  0  0  0999 V2000
   -2.0965   -0.4459   29.8753 C   0  0  0  0  0  0  0  0  0  0  0  0
   -2.2787   -1.0005   31.2176 C   0  0  0  0  0  0  0  0  0  0  0  0
   -3.0409   -0.3942   32.1277 N   0  0  0  0  0  0  0  0  0  0  0  0
   -2.8988   -1.1475   33.2732 O   0  0  0  0  0  0  0  0  0  0  0  0
   -2.0723   -2.1959   33.0354 C   0  0  0  0  0  0  0  0  0  0  0  0
   -1.6323   -2.1261   31.7558 C   0  0  0  0  0  0  0  0  0  0  0  0
   -0.6141   -2.7823   31.1601 N   0  0  0  0  0  0  0  0  0  0  0  0
    0.2017   -4.0079   31.6300 C   0  0  0  0  0  0  0  0  0  0  0  0
    0.0713   -4.6872   32.5660 O   0  0  0  0  0  0  0  0  0  0  0  0
    1.3118   -4.1044   30.6579 C   0  0  0  0  0  0  0  0  0  0  0  0
    1.9750   -2.8729   30.5414 C   0  0  0  0  0  0  0  0  0  0  0  0
    2.6703   -2.5557   29.4017 C   0  0  0  0  0  0  0  0  0  0  0  0
    2.8337   -3.5786   28.4864 C   0  0  0  0  0  0  0  0  0  0  0  0
    3.5013   -3.5179   27.2887 N   0  0  0  0  0  0  0  0  0  0  0  0
    3.7930   -4.7797   26.8978 C   0  0  0  0  0  0  0  0  0  0  0  0
    3.1092   -5.6462   27.7136 C   0  0  0  0  0  0  0  0  0  0  0  0
    2.4037   -4.8927   28.6972 C   0  0  0  0  0  0  0  0  0  0  0  0
    1.5622   -5.1750   29.8018 C   0  0  0  0  0  0  0  0  0  0  0  0
    3.3892   -7.0818   27.6602 C   0  0  0  0  0  0  0  0  0  0  0  0
    4.5401   -7.4895   26.7212 C   0  0  0  0  0  0  0  0  0  0  0  0
    4.6917   -6.5865   25.5007 C   0  0  0  0  0  0  0  0  0  0  0  0
    4.8556   -5.1274   25.9210 C   0  0  0  0  0  0  0  0  0  0  0  0
   -1.0607   -0.1178   29.7352 H   0  0  0  0  0  0  0  0  0  0  0  0
   -2.7318    0.4182   29.6912 H   0  0  0  0  0  0  0  0  0  0  0  0
   -2.3147   -1.1951   29.1076 H   0  0  0  0  0  0  0  0  0  0  0  0
   -1.8520   -2.8236   33.8863 H   0  0  0  0  0  0  0  0  0  0  0  0
   -0.2752   -2.4764   30.2527 H   0  0  0  0  0  0  0  0  0  0  0  0
    1.8390   -2.0910   31.2906 H   0  0  0  0  0  0  0  0  0  0  0  0
    3.0902   -1.5668   29.2487 H   0  0  0  0  0  0  0  0  0  0  0  0
    3.9244   -2.6775   26.9183 H   0  0  0  0  0  0  0  0  0  0  0  0
    1.1189   -6.1475   29.9718 H   0  0  0  0  0  0  0  0  0  0  0  0
    3.7191   -7.2980   28.6759 H   0  0  0  0  0  0  0  0  0  0  0  0
    2.4868   -7.6503   27.4362 H   0  0  0  0  0  0  0  0  0  0  0  0
    4.3858   -8.5176   26.3827 H   0  0  0  0  0  0  0  0  0  0  0  0
    5.4821   -7.4823   27.2852 H   0  0  0  0  0  0  0  0  0  0  0  0
    5.5499   -6.9014   24.8974 H   0  0  0  0  0  0  0  0  0  0  0  0
    3.7965   -6.7142   24.8883 H   0  0  0  0  0  0  0  0  0  0  0  0
    5.8330   -4.9983   26.4028 H   0  0  0  0  0  0  0  0  0  0  0  0
    4.8338   -4.4516   25.0705 H   0  0  0  0  0  0  0  0  0  0  0  0
  1  2  1  0
  2  3  2  0
  3  4  1  0
  4  5  1  0
  5  6  2  0
  6  7  1  0
  7  8  1  0
  8  9  2  0
  8 10  1  0
 10 11  2  0
 11 12  1  0
 12 13  2  0
 13 14  1  0
 14 15  1  0
 15 16  2  0
 16 17  1  0
 17 18  2  0
 16 19  1  0
 19 20  1  0
 20 21  1  0
 21 22  1  0
  6  2  1  0
 18 10  1  0
 17 13  1  0
 22 15  1  0
  1 23  1  0
  1 24  1  0
  1 25  1  0
  5 26  1  0
  7 27  1  0
 11 28  1  0
 12 29  1  0
 14 30  1  0
 18 31  1  0
 19 32  1  0
 19 33  1  0
 20 34  1  0
 20 35  1  0
 21 36  1  0
 21 37  1  0
 22 38  1  0
 22 39  1  0
M  END
>  <Energy>  (655) 
70.7338639853388

>  <compound_id>  (655) 
84575

>  <target_id>  (655) 
1

>  <reference_id>  (655) 
59

>  <inspiration_ids>  (655) 
[59, 40]

>  <energy_score>  (655) 
-9.649834336863194

>  <distance_score>  (655) 
3.0723205059515606

>  <path>  (655) 
/opt/xchem-fragalysis-2/maxwin/BulkDock/SCRATCH/511025/C84575-P59/C84575-P59.minimised.mol

>  <scratch_subdir>  (655) 
/opt/xchem-fragalysis-2/maxwin/BulkDock/SCRATCH/511025/C84575-P59

>  <fragmenstein_runtime>  (655) 
6.144075155258179

>  <fragmenstein_outcome>  (655) 
too moved

>  <fragmenstein_mode>  (655) 
expansion

>  <fragmenstein_error>  (655) 


$$$$
C84575-P40
     RDKit          3D

 39 42  0  0  0  0  0  0  0  0999 V2000
   -2.6670   -1.9923   32.2769 C   0  0  0  0  0  0  0  0  0  0  0  0
   -2.0716   -1.3733   31.0759 C   0  0  0  0  0  0  0  0  0  0  0  0
   -2.4011   -0.1146   30.7787 N   0  0  0  0  0  0  0  0  0  0  0  0
   -1.6820    0.2250   29.6523 O   0  0  0  0  0  0  0  0  0  0  0  0
   -0.8988   -0.8129   29.2956 C   0  0  0  0  0  0  0  0  0  0  0  0
   -1.0862   -1.8421   30.1817 C   0  0  0  0  0  0  0  0  0  0  0  0
   -0.3007   -2.9491   30.2159 N   0  0  0  0  0  0  0  0  0  0  0  0
   -0.4775   -4.2805   30.9759 C   0  0  0  0  0  0  0  0  0  0  0  0
   -1.3609   -4.6651   31.6289 O   0  0  0  0  0  0  0  0  0  0  0  0
    0.7964   -5.0083   30.8102 C   0  0  0  0  0  0  0  0  0  0  0  0
    1.7315   -4.4309   31.6669 C   0  0  0  0  0  0  0  0  0  0  0  0
    3.0075   -4.1995   31.2055 C   0  0  0  0  0  0  0  0  0  0  0  0
    3.3241   -4.6623   29.9299 C   0  0  0  0  0  0  0  0  0  0  0  0
    4.4907   -4.4571   29.2436 N   0  0  0  0  0  0  0  0  0  0  0  0
    4.4727   -5.1585   28.0888 C   0  0  0  0  0  0  0  0  0  0  0  0
    3.2621   -5.8073   27.9851 C   0  0  0  0  0  0  0  0  0  0  0  0
    2.4765   -5.4353   29.1296 C   0  0  0  0  0  0  0  0  0  0  0  0
    1.1511   -5.6092   29.5872 C   0  0  0  0  0  0  0  0  0  0  0  0
    3.0119   -6.6599   26.7979 C   0  0  0  0  0  0  0  0  0  0  0  0
    4.2839   -6.9816   25.9879 C   0  0  0  0  0  0  0  0  0  0  0  0
    5.1770   -5.7511   25.8054 C   0  0  0  0  0  0  0  0  0  0  0  0
    5.6372   -5.2158   27.1595 C   0  0  0  0  0  0  0  0  0  0  0  0
   -1.9050   -2.4787   32.8918 H   0  0  0  0  0  0  0  0  0  0  0  0
   -3.1622   -1.2465   32.9087 H   0  0  0  0  0  0  0  0  0  0  0  0
   -3.4226   -2.7244   31.9837 H   0  0  0  0  0  0  0  0  0  0  0  0
   -0.2687   -0.6493   28.4339 H   0  0  0  0  0  0  0  0  0  0  0  0
    0.5604   -2.9771   29.6779 H   0  0  0  0  0  0  0  0  0  0  0  0
    1.4197   -3.9712   32.6054 H   0  0  0  0  0  0  0  0  0  0  0  0
    3.7205   -3.6342   31.7997 H   0  0  0  0  0  0  0  0  0  0  0  0
    5.2742   -3.9179   29.5888 H   0  0  0  0  0  0  0  0  0  0  0  0
    0.4045   -6.0636   28.9626 H   0  0  0  0  0  0  0  0  0  0  0  0
    2.5761   -7.6043   27.1277 H   0  0  0  0  0  0  0  0  0  0  0  0
    2.3279   -6.1139   26.1426 H   0  0  0  0  0  0  0  0  0  0  0  0
    4.0018   -7.3979   25.0149 H   0  0  0  0  0  0  0  0  0  0  0  0
    4.8673   -7.7504   26.5052 H   0  0  0  0  0  0  0  0  0  0  0  0
    6.0448   -5.9968   25.1839 H   0  0  0  0  0  0  0  0  0  0  0  0
    4.6135   -4.9666   25.2912 H   0  0  0  0  0  0  0  0  0  0  0  0
    6.4013   -5.8792   27.5820 H   0  0  0  0  0  0  0  0  0  0  0  0
    6.0879   -4.2250   27.0350 H   0  0  0  0  0  0  0  0  0  0  0  0
  1  2  1  0
  2  3  2  0
  3  4  1  0
  4  5  1  0
  5  6  2  0
  6  7  1  0
  7  8  1  0
  8  9  2  0
  8 10  1  0
 10 11  2  0
 11 12  1  0
 12 13  2  0
 13 14  1  0
 14 15  1  0
 15 16  2  0
 16 17  1  0
 17 18  2  0
 16 19  1  0
 19 20  1  0
 20 21  1  0
 21 22  1  0
  6  2  1  0
 18 10  1  0
 17 13  1  0
 22 15  1  0
  1 23  1  0
  1 24  1  0
  1 25  1  0
  5 26  1  0
  7 27  1  0
 11 28  1  0
 12 29  1  0
 14 30  1  0
 18 31  1  0
 19 32  1  0
 19 33  1  0
 20 34  1  0
 20 35  1  0
 21 36  1  0
 21 37  1  0
 22 38  1  0
 22 39  1  0
M  END
>  <Energy>  (656) 
68.186424489463761

>  <compound_id>  (656) 
84575

>  <target_id>  (656) 
1

>  <reference_id>  (656) 
40

>  <inspiration_ids>  (656) 
[59, 40]

>  <energy_score>  (656) 
-12.197273832738915

>  <distance_score>  (656) 
1.9151823913492265

>  <path>  (656) 
/opt/xchem-fragalysis-2/maxwin/BulkDock/SCRATCH/511025/C84575-P40/C84575-P40.minimised.mol

>  <scratch_subdir>  (656) 
/opt/xchem-fragalysis-2/maxwin/BulkDock/SCRATCH/511025/C84575-P40

>  <fragmenstein_runtime>  (656) 
5.104912519454956

>  <fragmenstein_outcome>  (656) 
too moved

>  <fragmenstein_mode>  (656) 
expansion

>  <fragmenstein_error>  (656) 


$$$$
C51669-P59
     RDKit          3D

 51 54  0  0  0  0  0  0  0  0999 V2000
   -2.8955    0.0653   34.3094 C   0  0  0  0  0  0  0  0  0  0  0  0
   -2.9024   -1.0302   33.2580 C   0  0  0  0  0  0  0  0  0  0  0  0
   -4.3261   -1.5337   33.0363 C   0  0  0  0  0  0  0  0  0  0  0  0
   -2.1933   -0.5960   32.0157 C   0  0  0  0  0  0  0  0  0  0  0  0
   -0.8053   -0.7212   31.7738 C   0  0  0  0  0  0  0  0  0  0  0  0
   -0.8388   -0.9614   30.4244 C   0  0  0  0  0  0  0  0  0  0  0  0
   -0.6184   -2.1884   29.9248 N   0  0  0  0  0  0  0  0  0  0  0  0
   -0.4791   -3.5452   30.6352 C   0  0  0  0  0  0  0  0  0  0  0  0
   -0.4564   -3.8044   31.7707 O   0  0  0  0  0  0  0  0  0  0  0  0
   -0.4232   -4.6068   29.5680 C   0  0  0  0  0  0  0  0  0  0  0  0
   -0.5694   -5.9091   30.2161 O   0  0  0  0  0  0  0  0  0  0  0  0
    0.4290   -6.4135   30.9968 C   0  0  0  0  0  0  0  0  0  0  0  0
    0.2912   -7.2058   31.9090 O   0  0  0  0  0  0  0  0  0  0  0  0
    1.7248   -5.9439   30.5148 C   0  0  0  0  0  0  0  0  0  0  0  0
    2.2562   -4.7507   30.9855 C   0  0  0  0  0  0  0  0  0  0  0  0
    3.0509   -4.0015   30.1275 C   0  0  0  0  0  0  0  0  0  0  0  0
    3.3521   -4.5513   28.8710 C   0  0  0  0  0  0  0  0  0  0  0  0
    4.0953   -4.0216   27.8443 N   0  0  0  0  0  0  0  0  0  0  0  0
    4.4012   -5.0188   26.9660 C   0  0  0  0  0  0  0  0  0  0  0  0
    3.6397   -6.1256   27.2500 C   0  0  0  0  0  0  0  0  0  0  0  0
    2.9682   -5.8336   28.4653 C   0  0  0  0  0  0  0  0  0  0  0  0
    2.1214   -6.5373   29.3096 C   0  0  0  0  0  0  0  0  0  0  0  0
    3.8370   -7.3591   26.4359 C   0  0  0  0  0  0  0  0  0  0  0  0
    5.3356   -7.5364   26.1567 C   0  0  0  0  0  0  0  0  0  0  0  0
    5.8614   -6.3224   25.3707 C   0  0  0  0  0  0  0  0  0  0  0  0
    5.5410   -4.9555   26.0106 C   0  0  0  0  0  0  0  0  0  0  0  0
   -1.8787   -0.2817   29.8875 O   0  0  0  0  0  0  0  0  0  0  0  0
   -2.8298   -0.1897   30.9099 N   0  0  0  0  0  0  0  0  0  0  0  0
   -1.8750    0.4007   34.5269 H   0  0  0  0  0  0  0  0  0  0  0  0
   -3.4675    0.9424   33.9916 H   0  0  0  0  0  0  0  0  0  0  0  0
   -3.3314   -0.2925   35.2487 H   0  0  0  0  0  0  0  0  0  0  0  0
   -2.3371   -1.8781   33.6703 H   0  0  0  0  0  0  0  0  0  0  0  0
   -4.7362   -1.9441   33.9654 H   0  0  0  0  0  0  0  0  0  0  0  0
   -4.9924   -0.7265   32.7172 H   0  0  0  0  0  0  0  0  0  0  0  0
   -4.3526   -2.3268   32.2814 H   0  0  0  0  0  0  0  0  0  0  0  0
   -0.1083   -1.1566   32.4773 H   0  0  0  0  0  0  0  0  0  0  0  0
   -0.6837   -2.3360   28.9214 H   0  0  0  0  0  0  0  0  0  0  0  0
    0.4782   -4.4997   28.9682 H   0  0  0  0  0  0  0  0  0  0  0  0
   -1.2416   -4.4561   28.8687 H   0  0  0  0  0  0  0  0  0  0  0  0
    1.9493   -4.3400   31.9453 H   0  0  0  0  0  0  0  0  0  0  0  0
    3.4174   -3.0212   30.4199 H   0  0  0  0  0  0  0  0  0  0  0  0
    4.5440   -3.1153   27.8738 H   0  0  0  0  0  0  0  0  0  0  0  0
    1.7538   -7.5214   29.0433 H   0  0  0  0  0  0  0  0  0  0  0  0
    3.4106   -8.2387   26.9089 H   0  0  0  0  0  0  0  0  0  0  0  0
    3.3445   -7.2454   25.4670 H   0  0  0  0  0  0  0  0  0  0  0  0
    5.8927   -7.6413   27.0961 H   0  0  0  0  0  0  0  0  0  0  0  0
    5.4990   -8.4502   25.5761 H   0  0  0  0  0  0  0  0  0  0  0  0
    6.9434   -6.4135   25.2190 H   0  0  0  0  0  0  0  0  0  0  0  0
    5.4190   -6.3564   24.3702 H   0  0  0  0  0  0  0  0  0  0  0  0
    5.3315   -4.2098   25.2406 H   0  0  0  0  0  0  0  0  0  0  0  0
    6.4251   -4.6239   26.5686 H   0  0  0  0  0  0  0  0  0  0  0  0
  1  2  1  0
  2  3  1  0
  2  4  1  0
  4  5  1  0
  5  6  2  0
  6  7  1  0
  7  8  1  0
  8  9  2  0
  8 10  1  0
 10 11  1  0
 11 12  1  0
 12 13  2  0
 12 14  1  0
 14 15  2  0
 15 16  1  0
 16 17  2  0
 17 18  1  0
 18 19  1  0
 19 20  2  0
 20 21  1  0
 21 22  2  0
 20 23  1  0
 23 24  1  0
 24 25  1  0
 25 26  1  0
  6 27  1  0
 27 28  1  0
 28  4  2  0
 22 14  1  0
 21 17  1  0
 26 19  1  0
  1 29  1  0
  1 30  1  0
  1 31  1  0
  2 32  1  0
  3 33  1  0
  3 34  1  0
  3 35  1  0
  5 36  1  0
  7 37  1  0
 10 38  1  0
 10 39  1  0
 15 40  1  0
 16 41  1  0
 18 42  1  0
 22 43  1  0
 23 44  1  0
 23 45  1  0
 24 46  1  0
 24 47  1  0
 25 48  1  0
 25 49  1  0
 26 50  1  0
 26 51  1  0
M  END
>  <Energy>  (657) 
123.17837499590861

>  <compound_id>  (657) 
51669

>  <target_id>  (657) 
1

>  <reference_id>  (657) 
59

>  <inspiration_ids>  (657) 
[59, 40]

>  <energy_score>  (657) 
25.9650361351799

>  <distance_score>  (657) 
2.1876376601879257

>  <path>  (657) 
/opt/xchem-fragalysis-2/maxwin/BulkDock/SCRATCH/511025/C51669-P59/C51669-P59.minimised.mol

>  <scratch_subdir>  (657) 
/opt/xchem-fragalysis-2/maxwin/BulkDock/SCRATCH/511025/C51669-P59

>  <fragmenstein_runtime>  (657) 
7.533459186553955

>  <fragmenstein_outcome>  (657) 
too moved

>  <fragmenstein_mode>  (657) 
expansion

>  <fragmenstein_error>  (657) 


$$$$
C51669-P40
     RDKit          3D

 51 54  0  0  0  0  0  0  0  0999 V2000
   -3.1304    0.4484   34.7473 C   0  0  0  0  0  0  0  0  0  0  0  0
   -3.3507   -0.8032   33.9154 C   0  0  0  0  0  0  0  0  0  0  0  0
   -4.8586   -1.0317   33.7449 C   0  0  0  0  0  0  0  0  0  0  0  0
   -2.6124   -0.7638   32.6246 C   0  0  0  0  0  0  0  0  0  0  0  0
   -2.8090   -1.6530   31.5683 C   0  0  0  0  0  0  0  0  0  0  0  0
   -1.7365   -1.4275   30.7724 C   0  0  0  0  0  0  0  0  0  0  0  0
   -1.2901   -2.2546   29.8325 N   0  0  0  0  0  0  0  0  0  0  0  0
    0.0465   -2.2767   29.0757 C   0  0  0  0  0  0  0  0  0  0  0  0
    0.9376   -1.5315   29.0983 O   0  0  0  0  0  0  0  0  0  0  0  0
   -0.0481   -3.6004   28.3490 C   0  0  0  0  0  0  0  0  0  0  0  0
   -0.7094   -4.6398   29.1532 O   0  0  0  0  0  0  0  0  0  0  0  0
   -0.2530   -5.1658   30.3272 C   0  0  0  0  0  0  0  0  0  0  0  0
   -0.9570   -5.6242   31.2084 O   0  0  0  0  0  0  0  0  0  0  0  0
    1.1873   -5.2092   30.3583 C   0  0  0  0  0  0  0  0  0  0  0  0
    1.8044   -4.1058   30.9290 C   0  0  0  0  0  0  0  0  0  0  0  0
    2.9233   -3.6053   30.2920 C   0  0  0  0  0  0  0  0  0  0  0  0
    3.3402   -4.2665   29.1308 C   0  0  0  0  0  0  0  0  0  0  0  0
    4.2266   -3.8426   28.1708 N   0  0  0  0  0  0  0  0  0  0  0  0
    4.4191   -4.8362   27.2623 C   0  0  0  0  0  0  0  0  0  0  0  0
    3.6330   -5.9062   27.6115 C   0  0  0  0  0  0  0  0  0  0  0  0
    2.8452   -5.5052   28.7120 C   0  0  0  0  0  0  0  0  0  0  0  0
    1.7422   -6.0343   29.3721 C   0  0  0  0  0  0  0  0  0  0  0  0
    3.8080   -7.2111   26.9451 C   0  0  0  0  0  0  0  0  0  0  0  0
    4.4646   -7.0889   25.5712 C   0  0  0  0  0  0  0  0  0  0  0  0
    5.7073   -6.1846   25.6155 C   0  0  0  0  0  0  0  0  0  0  0  0
    5.3977   -4.7740   26.1433 C   0  0  0  0  0  0  0  0  0  0  0  0
   -1.0151   -0.3732   31.1996 O   0  0  0  0  0  0  0  0  0  0  0  0
   -1.5788    0.0626   32.3944 N   0  0  0  0  0  0  0  0  0  0  0  0
   -3.6605    0.3796   35.7041 H   0  0  0  0  0  0  0  0  0  0  0  0
   -2.0698    0.5970   34.9800 H   0  0  0  0  0  0  0  0  0  0  0  0
   -3.4889    1.3478   34.2346 H   0  0  0  0  0  0  0  0  0  0  0  0
   -2.9554   -1.6514   34.4908 H   0  0  0  0  0  0  0  0  0  0  0  0
   -5.3606   -1.0577   34.7185 H   0  0  0  0  0  0  0  0  0  0  0  0
   -5.3207   -0.2381   33.1490 H   0  0  0  0  0  0  0  0  0  0  0  0
   -5.0685   -1.9859   33.2499 H   0  0  0  0  0  0  0  0  0  0  0  0
   -3.5128   -2.4663   31.5091 H   0  0  0  0  0  0  0  0  0  0  0  0
   -1.8739   -3.0218   29.5122 H   0  0  0  0  0  0  0  0  0  0  0  0
   -0.7308   -3.4101   27.5351 H   0  0  0  0  0  0  0  0  0  0  0  0
    0.8974   -3.9257   27.9295 H   0  0  0  0  0  0  0  0  0  0  0  0
    1.3175   -3.5130   31.7012 H   0  0  0  0  0  0  0  0  0  0  0  0
    3.3520   -2.6506   30.5875 H   0  0  0  0  0  0  0  0  0  0  0  0
    4.7019   -2.9489   28.1824 H   0  0  0  0  0  0  0  0  0  0  0  0
    1.2072   -6.8873   28.9733 H   0  0  0  0  0  0  0  0  0  0  0  0
    4.5071   -7.7466   27.5914 H   0  0  0  0  0  0  0  0  0  0  0  0
    2.8761   -7.7723   26.8833 H   0  0  0  0  0  0  0  0  0  0  0  0
    4.7420   -8.0837   25.2068 H   0  0  0  0  0  0  0  0  0  0  0  0
    3.7325   -6.6834   24.8748 H   0  0  0  0  0  0  0  0  0  0  0  0
    6.4548   -6.6535   26.2691 H   0  0  0  0  0  0  0  0  0  0  0  0
    6.1612   -6.1161   24.6208 H   0  0  0  0  0  0  0  0  0  0  0  0
    4.9757   -4.1573   25.3449 H   0  0  0  0  0  0  0  0  0  0  0  0
    6.3244   -4.2978   26.4784 H   0  0  0  0  0  0  0  0  0  0  0  0
  1  2  1  0
  2  3  1  0
  2  4  1  0
  4  5  1  0
  5  6  2  0
  6  7  1  0
  7  8  1  0
  8  9  2  0
  8 10  1  0
 10 11  1  0
 11 12  1  0
 12 13  2  0
 12 14  1  0
 14 15  2  0
 15 16  1  0
 16 17  2  0
 17 18  1  0
 18 19  1  0
 19 20  2  0
 20 21  1  0
 21 22  2  0
 20 23  1  0
 23 24  1  0
 24 25  1  0
 25 26  1  0
  6 27  1  0
 27 28  1  0
 28  4  2  0
 22 14  1  0
 21 17  1  0
 26 19  1  0
  1 29  1  0
  1 30  1  0
  1 31  1  0
  2 32  1  0
  3 33  1  0
  3 34  1  0
  3 35  1  0
  5 36  1  0
  7 37  1  0
 10 38  1  0
 10 39  1  0
 15 40  1  0
 16 41  1  0
 18 42  1  0
 22 43  1  0
 23 44  1  0
 23 45  1  0
 24 46  1  0
 24 47  1  0
 25 48  1  0
 25 49  1  0
 26 50  1  0
 26 51  1  0
M  END
>  <Energy>  (658) 
93.135834255494402

>  <compound_id>  (658) 
51669

>  <target_id>  (658) 
1

>  <reference_id>  (658) 
40

>  <inspiration_ids>  (658) 
[59, 40]

>  <energy_score>  (658) 
-4.077504605235333

>  <distance_score>  (658) 
2.399094194272529

>  <path>  (658) 
/opt/xchem-fragalysis-2/maxwin/BulkDock/SCRATCH/511025/C51669-P40/C51669-P40.minimised.mol

>  <scratch_subdir>  (658) 
/opt/xchem-fragalysis-2/maxwin/BulkDock/SCRATCH/511025/C51669-P40

>  <fragmenstein_runtime>  (658) 
10.053826808929443

>  <fragmenstein_outcome>  (658) 
too moved

>  <fragmenstein_mode>  (658) 
expansion

>  <fragmenstein_error>  (658) 


$$$$
C84575-P59
     RDKit          3D

 39 42  0  0  0  0  0  0  0  0999 V2000
   -2.0965   -0.4459   29.8753 C   0  0  0  0  0  0  0  0  0  0  0  0
   -2.2787   -1.0005   31.2176 C   0  0  0  0  0  0  0  0  0  0  0  0
   -3.0409   -0.3942   32.1277 N   0  0  0  0  0  0  0  0  0  0  0  0
   -2.8988   -1.1475   33.2732 O   0  0  0  0  0  0  0  0  0  0  0  0
   -2.0723   -2.1959   33.0354 C   0  0  0  0  0  0  0  0  0  0  0  0
   -1.6323   -2.1261   31.7558 C   0  0  0  0  0  0  0  0  0  0  0  0
   -0.6141   -2.7823   31.1601 N   0  0  0  0  0  0  0  0  0  0  0  0
    0.2017   -4.0079   31.6300 C   0  0  0  0  0  0  0  0  0  0  0  0
    0.0713   -4.6872   32.5660 O   0  0  0  0  0  0  0  0  0  0  0  0
    1.3118   -4.1044   30.6579 C   0  0  0  0  0  0  0  0  0  0  0  0
    1.9750   -2.8729   30.5414 C   0  0  0  0  0  0  0  0  0  0  0  0
    2.6703   -2.5557   29.4017 C   0  0  0  0  0  0  0  0  0  0  0  0
    2.8337   -3.5786   28.4864 C   0  0  0  0  0  0  0  0  0  0  0  0
    3.5013   -3.5179   27.2887 N   0  0  0  0  0  0  0  0  0  0  0  0
    3.7930   -4.7797   26.8978 C   0  0  0  0  0  0  0  0  0  0  0  0
    3.1092   -5.6462   27.7136 C   0  0  0  0  0  0  0  0  0  0  0  0
    2.4037   -4.8927   28.6972 C   0  0  0  0  0  0  0  0  0  0  0  0
    1.5622   -5.1750   29.8018 C   0  0  0  0  0  0  0  0  0  0  0  0
    3.3892   -7.0818   27.6602 C   0  0  0  0  0  0  0  0  0  0  0  0
    4.5401   -7.4895   26.7212 C   0  0  0  0  0  0  0  0  0  0  0  0
    4.6917   -6.5865   25.5007 C   0  0  0  0  0  0  0  0  0  0  0  0
    4.8556   -5.1274   25.9210 C   0  0  0  0  0  0  0  0  0  0  0  0
   -1.0607   -0.1178   29.7352 H   0  0  0  0  0  0  0  0  0  0  0  0
   -2.7318    0.4182   29.6912 H   0  0  0  0  0  0  0  0  0  0  0  0
   -2.3147   -1.1951   29.1076 H   0  0  0  0  0  0  0  0  0  0  0  0
   -1.8520   -2.8236   33.8863 H   0  0  0  0  0  0  0  0  0  0  0  0
   -0.2752   -2.4764   30.2527 H   0  0  0  0  0  0  0  0  0  0  0  0
    1.8390   -2.0910   31.2906 H   0  0  0  0  0  0  0  0  0  0  0  0
    3.0902   -1.5668   29.2487 H   0  0  0  0  0  0  0  0  0  0  0  0
    3.9244   -2.6775   26.9183 H   0  0  0  0  0  0  0  0  0  0  0  0
    1.1189   -6.1475   29.9718 H   0  0  0  0  0  0  0  0  0  0  0  0
    3.7191   -7.2980   28.6759 H   0  0  0  0  0  0  0  0  0  0  0  0
    2.4868   -7.6503   27.4362 H   0  0  0  0  0  0  0  0  0  0  0  0
    4.3858   -8.5176   26.3827 H   0  0  0  0  0  0  0  0  0  0  0  0
    5.4821   -7.4823   27.2852 H   0  0  0  0  0  0  0  0  0  0  0  0
    5.5499   -6.9014   24.8974 H   0  0  0  0  0  0  0  0  0  0  0  0
    3.7965   -6.7142   24.8883 H   0  0  0  0  0  0  0  0  0  0  0  0
    5.8330   -4.9983   26.4028 H   0  0  0  0  0  0  0  0  0  0  0  0
    4.8338   -4.4516   25.0705 H   0  0  0  0  0  0  0  0  0  0  0  0
  1  2  1  0
  2  3  2  0
  3  4  1  0
  4  5  1  0
  5  6  2  0
  6  7  1  0
  7  8  1  0
  8  9  2  0
  8 10  1  0
 10 11  2  0
 11 12  1  0
 12 13  2  0
 13 14  1  0
 14 15  1  0
 15 16  2  0
 16 17  1  0
 17 18  2  0
 16 19  1  0
 19 20  1  0
 20 21  1  0
 21 22  1  0
  6  2  1  0
 18 10  1  0
 17 13  1  0
 22 15  1  0
  1 23  1  0
  1 24  1  0
  1 25  1  0
  5 26  1  0
  7 27  1  0
 11 28  1  0
 12 29  1  0
 14 30  1  0
 18 31  1  0
 19 32  1  0
 19 33  1  0
 20 34  1  0
 20 35  1  0
 21 36  1  0
 21 37  1  0
 22 38  1  0
 22 39  1  0
M  END
>  <Energy>  (659) 
70.7338639853388

>  <compound_id>  (659) 
84575

>  <target_id>  (659) 
1

>  <reference_id>  (659) 
59

>  <inspiration_ids>  (659) 
[59, 40]

>  <energy_score>  (659) 
-9.649834336863194

>  <distance_score>  (659) 
3.0723205059515606

>  <path>  (659) 
/opt/xchem-fragalysis-2/maxwin/BulkDock/SCRATCH/511025/C84575-P59/C84575-P59.minimised.mol

>  <scratch_subdir>  (659) 
/opt/xchem-fragalysis-2/maxwin/BulkDock/SCRATCH/511025/C84575-P59

>  <fragmenstein_runtime>  (659) 
5.4997193813323975

>  <fragmenstein_outcome>  (659) 
too moved

>  <fragmenstein_mode>  (659) 
expansion

>  <fragmenstein_error>  (659) 


$$$$
C84575-P40
     RDKit          3D

 39 42  0  0  0  0  0  0  0  0999 V2000
   -2.6670   -1.9923   32.2769 C   0  0  0  0  0  0  0  0  0  0  0  0
   -2.0716   -1.3733   31.0759 C   0  0  0  0  0  0  0  0  0  0  0  0
   -2.4011   -0.1146   30.7787 N   0  0  0  0  0  0  0  0  0  0  0  0
   -1.6820    0.2250   29.6523 O   0  0  0  0  0  0  0  0  0  0  0  0
   -0.8988   -0.8129   29.2956 C   0  0  0  0  0  0  0  0  0  0  0  0
   -1.0862   -1.8421   30.1817 C   0  0  0  0  0  0  0  0  0  0  0  0
   -0.3007   -2.9491   30.2159 N   0  0  0  0  0  0  0  0  0  0  0  0
   -0.4775   -4.2805   30.9759 C   0  0  0  0  0  0  0  0  0  0  0  0
   -1.3609   -4.6651   31.6289 O   0  0  0  0  0  0  0  0  0  0  0  0
    0.7964   -5.0083   30.8102 C   0  0  0  0  0  0  0  0  0  0  0  0
    1.7315   -4.4309   31.6669 C   0  0  0  0  0  0  0  0  0  0  0  0
    3.0075   -4.1995   31.2055 C   0  0  0  0  0  0  0  0  0  0  0  0
    3.3241   -4.6623   29.9299 C   0  0  0  0  0  0  0  0  0  0  0  0
    4.4907   -4.4571   29.2436 N   0  0  0  0  0  0  0  0  0  0  0  0
    4.4727   -5.1585   28.0888 C   0  0  0  0  0  0  0  0  0  0  0  0
    3.2621   -5.8073   27.9851 C   0  0  0  0  0  0  0  0  0  0  0  0
    2.4765   -5.4353   29.1296 C   0  0  0  0  0  0  0  0  0  0  0  0
    1.1511   -5.6092   29.5872 C   0  0  0  0  0  0  0  0  0  0  0  0
    3.0119   -6.6599   26.7979 C   0  0  0  0  0  0  0  0  0  0  0  0
    4.2839   -6.9816   25.9879 C   0  0  0  0  0  0  0  0  0  0  0  0
    5.1770   -5.7511   25.8054 C   0  0  0  0  0  0  0  0  0  0  0  0
    5.6372   -5.2158   27.1595 C   0  0  0  0  0  0  0  0  0  0  0  0
   -1.9050   -2.4787   32.8918 H   0  0  0  0  0  0  0  0  0  0  0  0
   -3.1622   -1.2465   32.9087 H   0  0  0  0  0  0  0  0  0  0  0  0
   -3.4226   -2.7244   31.9837 H   0  0  0  0  0  0  0  0  0  0  0  0
   -0.2687   -0.6493   28.4339 H   0  0  0  0  0  0  0  0  0  0  0  0
    0.5604   -2.9771   29.6779 H   0  0  0  0  0  0  0  0  0  0  0  0
    1.4197   -3.9712   32.6054 H   0  0  0  0  0  0  0  0  0  0  0  0
    3.7205   -3.6342   31.7997 H   0  0  0  0  0  0  0  0  0  0  0  0
    5.2742   -3.9179   29.5888 H   0  0  0  0  0  0  0  0  0  0  0  0
    0.4045   -6.0636   28.9626 H   0  0  0  0  0  0  0  0  0  0  0  0
    2.5761   -7.6043   27.1277 H   0  0  0  0  0  0  0  0  0  0  0  0
    2.3279   -6.1139   26.1426 H   0  0  0  0  0  0  0  0  0  0  0  0
    4.0018   -7.3979   25.0149 H   0  0  0  0  0  0  0  0  0  0  0  0
    4.8673   -7.7504   26.5052 H   0  0  0  0  0  0  0  0  0  0  0  0
    6.0448   -5.9968   25.1839 H   0  0  0  0  0  0  0  0  0  0  0  0
    4.6135   -4.9666   25.2912 H   0  0  0  0  0  0  0  0  0  0  0  0
    6.4013   -5.8792   27.5820 H   0  0  0  0  0  0  0  0  0  0  0  0
    6.0879   -4.2250   27.0350 H   0  0  0  0  0  0  0  0  0  0  0  0
  1  2  1  0
  2  3  2  0
  3  4  1  0
  4  5  1  0
  5  6  2  0
  6  7  1  0
  7  8  1  0
  8  9  2  0
  8 10  1  0
 10 11  2  0
 11 12  1  0
 12 13  2  0
 13 14  1  0
 14 15  1  0
 15 16  2  0
 16 17  1  0
 17 18  2  0
 16 19  1  0
 19 20  1  0
 20 21  1  0
 21 22  1  0
  6  2  1  0
 18 10  1  0
 17 13  1  0
 22 15  1  0
  1 23  1  0
  1 24  1  0
  1 25  1  0
  5 26  1  0
  7 27  1  0
 11 28  1  0
 12 29  1  0
 14 30  1  0
 18 31  1  0
 19 32  1  0
 19 33  1  0
 20 34  1  0
 20 35  1  0
 21 36  1  0
 21 37  1  0
 22 38  1  0
 22 39  1  0
M  END
>  <Energy>  (660) 
68.186424489463761

>  <compound_id>  (660) 
84575

>  <target_id>  (660) 
1

>  <reference_id>  (660) 
40

>  <inspiration_ids>  (660) 
[59, 40]

>  <energy_score>  (660) 
-12.197273832738915

>  <distance_score>  (660) 
1.9151823913492265

>  <path>  (660) 
/opt/xchem-fragalysis-2/maxwin/BulkDock/SCRATCH/511025/C84575-P40/C84575-P40.minimised.mol

>  <scratch_subdir>  (660) 
/opt/xchem-fragalysis-2/maxwin/BulkDock/SCRATCH/511025/C84575-P40

>  <fragmenstein_runtime>  (660) 
6.231734752655029

>  <fragmenstein_outcome>  (660) 
too moved

>  <fragmenstein_mode>  (660) 
expansion

>  <fragmenstein_error>  (660) 


$$$$
C84579-P59
     RDKit          3D

 42 45  0  0  0  0  0  0  0  0999 V2000
   -0.9095   -2.7765   34.5184 C   0  0  0  0  0  0  0  0  0  0  0  0
   -0.4100   -3.3746   33.2536 N   0  0  0  0  0  0  0  0  0  0  0  0
    0.1991   -1.9494   33.1301 C   0  0  0  0  0  0  0  0  0  0  0  0
   -0.4523   -1.1703   31.9851 C   0  0  0  0  0  0  0  0  0  0  0  0
   -1.6918   -1.3423   31.3137 C   0  0  0  0  0  0  0  0  0  0  0  0
   -1.6508   -0.4420   30.2808 C   0  0  0  0  0  0  0  0  0  0  0  0
   -0.5210    0.2956   30.3738 O   0  0  0  0  0  0  0  0  0  0  0  0
    0.2188   -0.1359   31.4553 N   0  0  0  0  0  0  0  0  0  0  0  0
    0.6421   -4.4456   33.0133 C   0  0  0  0  0  0  0  0  0  0  0  0
    1.3603   -4.9908   33.7699 O   0  0  0  0  0  0  0  0  0  0  0  0
    0.7915   -4.7255   31.5440 C   0  0  0  0  0  0  0  0  0  0  0  0
   -0.1652   -4.2330   30.6647 C   0  0  0  0  0  0  0  0  0  0  0  0
    0.1546   -3.9703   29.3445 C   0  0  0  0  0  0  0  0  0  0  0  0
    1.4221   -4.3519   28.9222 C   0  0  0  0  0  0  0  0  0  0  0  0
    2.0668   -4.0234   27.7633 N   0  0  0  0  0  0  0  0  0  0  0  0
    3.1963   -4.7610   27.6257 C   0  0  0  0  0  0  0  0  0  0  0  0
    3.4439   -5.3559   28.8457 C   0  0  0  0  0  0  0  0  0  0  0  0
    2.3161   -5.0908   29.6914 C   0  0  0  0  0  0  0  0  0  0  0  0
    1.9931   -5.2730   31.0532 C   0  0  0  0  0  0  0  0  0  0  0  0
    4.7685   -5.9886   29.1219 C   0  0  0  0  0  0  0  0  0  0  0  0
    5.8290   -5.6306   28.0622 C   0  0  0  0  0  0  0  0  0  0  0  0
    5.2629   -5.6969   26.6379 C   0  0  0  0  0  0  0  0  0  0  0  0
    4.1105   -4.7015   26.4549 C   0  0  0  0  0  0  0  0  0  0  0  0
   -1.6499   -1.9720   34.3985 H   0  0  0  0  0  0  0  0  0  0  0  0
   -1.4697   -3.5971   34.9813 H   0  0  0  0  0  0  0  0  0  0  0  0
   -0.1275   -2.6106   35.2779 H   0  0  0  0  0  0  0  0  0  0  0  0
    0.3623   -1.2714   33.9906 H   0  0  0  0  0  0  0  0  0  0  0  0
    1.2340   -2.1263   32.7920 H   0  0  0  0  0  0  0  0  0  0  0  0
   -2.4692   -2.0616   31.5183 H   0  0  0  0  0  0  0  0  0  0  0  0
   -2.3032   -0.1956   29.4561 H   0  0  0  0  0  0  0  0  0  0  0  0
   -1.1382   -3.9274   31.0248 H   0  0  0  0  0  0  0  0  0  0  0  0
   -0.5379   -3.4481   28.6889 H   0  0  0  0  0  0  0  0  0  0  0  0
    1.7742   -3.2588   27.1777 H   0  0  0  0  0  0  0  0  0  0  0  0
    2.7280   -5.6768   31.7420 H   0  0  0  0  0  0  0  0  0  0  0  0
    5.1415   -5.6554   30.0940 H   0  0  0  0  0  0  0  0  0  0  0  0
    4.6498   -7.0736   29.1348 H   0  0  0  0  0  0  0  0  0  0  0  0
    6.2049   -4.6164   28.2499 H   0  0  0  0  0  0  0  0  0  0  0  0
    6.6838   -6.3095   28.1594 H   0  0  0  0  0  0  0  0  0  0  0  0
    4.9062   -6.7163   26.4404 H   0  0  0  0  0  0  0  0  0  0  0  0
    6.0508   -5.4868   25.9066 H   0  0  0  0  0  0  0  0  0  0  0  0
    3.5629   -4.9397   25.5436 H   0  0  0  0  0  0  0  0  0  0  0  0
    4.5106   -3.6858   26.3540 H   0  0  0  0  0  0  0  0  0  0  0  0
  1  2  1  0
  2  3  1  0
  3  4  1  0
  4  5  1  0
  5  6  2  0
  6  7  1  0
  7  8  1  0
  2  9  1  0
  9 10  2  0
  9 11  1  0
 11 12  2  0
 12 13  1  0
 13 14  2  0
 14 15  1  0
 15 16  1  0
 16 17  2  0
 17 18  1  0
 18 19  2  0
 17 20  1  0
 20 21  1  0
 21 22  1  0
 22 23  1  0
  8  4  2  0
 19 11  1  0
 18 14  1  0
 23 16  1  0
  1 24  1  0
  1 25  1  0
  1 26  1  0
  3 27  1  0
  3 28  1  0
  5 29  1  0
  6 30  1  0
 12 31  1  0
 13 32  1  0
 15 33  1  0
 19 34  1  0
 20 35  1  0
 20 36  1  0
 21 37  1  0
 21 38  1  0
 22 39  1  0
 22 40  1  0
 23 41  1  0
 23 42  1  0
M  END
>  <Energy>  (661) 
124.48995715574296

>  <compound_id>  (661) 
84579

>  <target_id>  (661) 
1

>  <reference_id>  (661) 
59

>  <inspiration_ids>  (661) 
[59, 40]

>  <energy_score>  (661) 
65.81046689576328

>  <distance_score>  (661) 
2.3734279825076405

>  <path>  (661) 
/opt/xchem-fragalysis-2/maxwin/BulkDock/SCRATCH/511025/C84579-P59/C84579-P59.minimised.mol

>  <scratch_subdir>  (661) 
/opt/xchem-fragalysis-2/maxwin/BulkDock/SCRATCH/511025/C84579-P59

>  <fragmenstein_runtime>  (661) 
6.4760987758636475

>  <fragmenstein_outcome>  (661) 
too moved

>  <fragmenstein_mode>  (661) 
expansion

>  <fragmenstein_error>  (661) 


$$$$
C84579-P40
     RDKit          3D

 42 45  0  0  0  0  0  0  0  0999 V2000
   -1.9577   -2.2393   30.2191 C   0  0  0  0  0  0  0  0  0  0  0  0
   -0.5921   -2.7965   30.3736 N   0  0  0  0  0  0  0  0  0  0  0  0
   -0.5218   -1.7285   31.4706 C   0  0  0  0  0  0  0  0  0  0  0  0
   -0.0219   -0.4070   30.9499 C   0  0  0  0  0  0  0  0  0  0  0  0
    0.6020   -0.1128   29.7130 C   0  0  0  0  0  0  0  0  0  0  0  0
    0.8031    1.2399   29.7541 C   0  0  0  0  0  0  0  0  0  0  0  0
    0.3572    1.7287   30.9367 O   0  0  0  0  0  0  0  0  0  0  0  0
   -0.1712    0.6969   31.6942 N   0  0  0  0  0  0  0  0  0  0  0  0
   -0.1545   -4.0452   30.8773 C   0  0  0  0  0  0  0  0  0  0  0  0
   -0.7687   -4.9389   31.3918 O   0  0  0  0  0  0  0  0  0  0  0  0
    1.2859   -4.2505   30.6050 C   0  0  0  0  0  0  0  0  0  0  0  0
    2.2363   -3.7989   31.5168 C   0  0  0  0  0  0  0  0  0  0  0  0
    3.5917   -3.8860   31.2140 C   0  0  0  0  0  0  0  0  0  0  0  0
    3.9508   -4.4974   30.0075 C   0  0  0  0  0  0  0  0  0  0  0  0
    5.2068   -4.7279   29.4938 N   0  0  0  0  0  0  0  0  0  0  0  0
    5.1055   -5.4161   28.3237 C   0  0  0  0  0  0  0  0  0  0  0  0
    3.7695   -5.6049   28.0385 C   0  0  0  0  0  0  0  0  0  0  0  0
    3.0210   -5.0201   29.1026 C   0  0  0  0  0  0  0  0  0  0  0  0
    1.6525   -4.8770   29.4009 C   0  0  0  0  0  0  0  0  0  0  0  0
    3.3342   -6.3361   26.8163 C   0  0  0  0  0  0  0  0  0  0  0  0
    4.4860   -6.4924   25.8055 C   0  0  0  0  0  0  0  0  0  0  0  0
    5.8135   -6.8907   26.4690 C   0  0  0  0  0  0  0  0  0  0  0  0
    6.2684   -5.8468   27.4983 C   0  0  0  0  0  0  0  0  0  0  0  0
   -2.0602   -1.1860   29.9265 H   0  0  0  0  0  0  0  0  0  0  0  0
   -2.3131   -2.7699   29.3309 H   0  0  0  0  0  0  0  0  0  0  0  0
   -2.6565   -2.5679   31.0031 H   0  0  0  0  0  0  0  0  0  0  0  0
   -1.3704   -1.6502   32.1749 H   0  0  0  0  0  0  0  0  0  0  0  0
    0.2717   -2.0495   32.1575 H   0  0  0  0  0  0  0  0  0  0  0  0
    0.8435   -0.7882   28.9045 H   0  0  0  0  0  0  0  0  0  0  0  0
    1.2220    1.9676   29.0746 H   0  0  0  0  0  0  0  0  0  0  0  0
    1.9391   -3.3611   32.4648 H   0  0  0  0  0  0  0  0  0  0  0  0
    4.3414   -3.5115   31.9046 H   0  0  0  0  0  0  0  0  0  0  0  0
    6.0715   -4.4512   29.9394 H   0  0  0  0  0  0  0  0  0  0  0  0
    0.8924   -5.2242   28.7119 H   0  0  0  0  0  0  0  0  0  0  0  0
    2.9821   -7.3297   27.1135 H   0  0  0  0  0  0  0  0  0  0  0  0
    2.5022   -5.8105   26.3381 H   0  0  0  0  0  0  0  0  0  0  0  0
    4.2093   -7.2340   25.0482 H   0  0  0  0  0  0  0  0  0  0  0  0
    4.6387   -5.5372   25.2905 H   0  0  0  0  0  0  0  0  0  0  0  0
    6.5906   -7.0161   25.7065 H   0  0  0  0  0  0  0  0  0  0  0  0
    5.6934   -7.8605   26.9639 H   0  0  0  0  0  0  0  0  0  0  0  0
    6.6790   -4.9731   26.9783 H   0  0  0  0  0  0  0  0  0  0  0  0
    7.0625   -6.2646   28.1265 H   0  0  0  0  0  0  0  0  0  0  0  0
  1  2  1  0
  2  3  1  0
  3  4  1  0
  4  5  1  0
  5  6  2  0
  6  7  1  0
  7  8  1  0
  2  9  1  0
  9 10  2  0
  9 11  1  0
 11 12  2  0
 12 13  1  0
 13 14  2  0
 14 15  1  0
 15 16  1  0
 16 17  2  0
 17 18  1  0
 18 19  2  0
 17 20  1  0
 20 21  1  0
 21 22  1  0
 22 23  1  0
  8  4  2  0
 19 11  1  0
 18 14  1  0
 23 16  1  0
  1 24  1  0
  1 25  1  0
  1 26  1  0
  3 27  1  0
  3 28  1  0
  5 29  1  0
  6 30  1  0
 12 31  1  0
 13 32  1  0
 15 33  1  0
 19 34  1  0
 20 35  1  0
 20 36  1  0
 21 37  1  0
 21 38  1  0
 22 39  1  0
 22 40  1  0
 23 41  1  0
 23 42  1  0
M  END
>  <Energy>  (662) 
101.4754173459024

>  <compound_id>  (662) 
84579

>  <target_id>  (662) 
1

>  <reference_id>  (662) 
40

>  <inspiration_ids>  (662) 
[59, 40]

>  <energy_score>  (662) 
32.090466286722005

>  <distance_score>  (662) 
2.7548520314882405

>  <path>  (662) 
/opt/xchem-fragalysis-2/maxwin/BulkDock/SCRATCH/511025/C84579-P40/C84579-P40.minimised.mol

>  <scratch_subdir>  (662) 
/opt/xchem-fragalysis-2/maxwin/BulkDock/SCRATCH/511025/C84579-P40

>  <fragmenstein_runtime>  (662) 
6.758726119995117

>  <fragmenstein_outcome>  (662) 
too moved

>  <fragmenstein_mode>  (662) 
expansion

>  <fragmenstein_error>  (662) 


$$$$
C62839-P13
     RDKit          3D

 32 35  0  0  0  0  0  0  0  0999 V2000
    4.6972   -1.9202   25.5131 C   0  0  0  0  0  0  0  0  0  0  0  0
    4.3524   -0.7966   26.2456 C   0  0  0  0  0  0  0  0  0  0  0  0
    4.2779    0.3793   25.5522 C   0  0  0  0  0  0  0  0  0  0  0  0
    4.5701    0.4570   24.1808 C   0  0  0  0  0  0  0  0  0  0  0  0
    4.8342   -0.7177   23.2230 C   0  0  0  0  0  0  0  0  0  0  0  0
    5.2832   -0.7385   21.3524 C   0  0  0  0  0  0  0  0  0  0  0  0
    5.9420   -1.8930   20.6856 C   0  0  0  0  0  0  0  0  0  0  0  0
    7.3194   -1.3401   20.6134 N   0  0  0  0  0  0  0  0  0  0  0  0
    7.4523   -0.2406   19.9810 N   0  0  0  0  0  0  0  0  0  0  0  0
    6.2995    0.3041   20.2123 C   0  0  0  0  0  0  0  0  0  0  0  0
    6.7133    0.3285   18.5124 C   0  0  0  0  0  0  0  0  0  0  0  0
    8.0061    0.8138   17.6995 C   0  0  0  0  0  0  0  0  0  0  0  0
    8.5947    1.7265   18.7021 C   0  0  0  0  0  0  0  0  0  0  0  0
    8.5724    0.7451   19.8631 C   0  0  0  0  0  0  0  0  0  0  0  0
    4.8851   -1.8707   24.0853 C   0  0  0  0  0  0  0  0  0  0  0  0
    4.2808    1.7782   23.7714 O   0  0  0  0  0  0  0  0  0  0  0  0
    3.7418    2.3763   24.9544 C   0  0  0  0  0  0  0  0  0  0  0  0
    3.8515    1.5459   26.1121 O   0  0  0  0  0  0  0  0  0  0  0  0
    4.8938   -2.8603   26.0269 H   0  0  0  0  0  0  0  0  0  0  0  0
    4.1698   -0.8410   27.3115 H   0  0  0  0  0  0  0  0  0  0  0  0
    5.6947   -2.9160   20.7855 H   0  0  0  0  0  0  0  0  0  0  0  0
    6.1387   -0.3737   17.8892 H   0  0  0  0  0  0  0  0  0  0  0  0
    6.5324    1.3740   18.6807 H   0  0  0  0  0  0  0  0  0  0  0  0
    8.6600    0.0131   17.3706 H   0  0  0  0  0  0  0  0  0  0  0  0
    7.8114    1.3696   16.7749 H   0  0  0  0  0  0  0  0  0  0  0  0
    9.5509    2.0967   18.3495 H   0  0  0  0  0  0  0  0  0  0  0  0
    7.9976    2.6213   18.9171 H   0  0  0  0  0  0  0  0  0  0  0  0
    8.9696    1.1770   20.7897 H   0  0  0  0  0  0  0  0  0  0  0  0
    9.1814   -0.0193   19.5639 H   0  0  0  0  0  0  0  0  0  0  0  0
    5.5202   -2.6869   23.7498 H   0  0  0  0  0  0  0  0  0  0  0  0
    4.2781    3.3119   25.1463 H   0  0  0  0  0  0  0  0  0  0  0  0
    2.6864    2.6165   24.7821 H   0  0  0  0  0  0  0  0  0  0  0  0
  1  2  2  0
  2  3  1  0
  3  4  2  0
  4  5  1  0
  5  6  1  0
  6  7  1  0
  7  8  2  0
  8  9  1  0
  9 10  1  0
 10 11  1  0
 11 12  1  0
 12 13  1  0
 13 14  1  0
  5 15  2  0
  4 16  1  0
 16 17  1  0
 17 18  1  0
 15  1  1  0
 18  3  1  0
 10  6  2  0
 14  9  1  0
  1 19  1  0
  2 20  1  0
  7 21  1  0
 11 22  1  0
 11 23  1  0
 12 24  1  0
 12 25  1  0
 13 26  1  0
 13 27  1  0
 14 28  1  0
 14 29  1  0
 15 30  1  0
 17 31  1  0
 17 32  1  0
M  END
>  <Energy>  (663) 
490.21589891349652

>  <compound_id>  (663) 
62839

>  <target_id>  (663) 
1

>  <reference_id>  (663) 
13

>  <inspiration_ids>  (663) 
[13, 60]

>  <energy_score>  (663) 
423.6182673866891

>  <distance_score>  (663) 
6.5622066593749695

>  <path>  (663) 
/opt/xchem-fragalysis-2/maxwin/BulkDock/SCRATCH/511025/C62839-P13/C62839-P13.minimised.mol

>  <scratch_subdir>  (663) 
/opt/xchem-fragalysis-2/maxwin/BulkDock/SCRATCH/511025/C62839-P13

>  <fragmenstein_runtime>  (663) 
7.295488357543945

>  <fragmenstein_outcome>  (663) 
too moved

>  <fragmenstein_mode>  (663) 
expansion

>  <fragmenstein_error>  (663) 


$$$$
C62839-P60
     RDKit          3D

 32 35  0  0  0  0  0  0  0  0999 V2000
    4.0455   -2.3148   24.1763 C   0  0  0  0  0  0  0  0  0  0  0  0
    3.9663   -1.8237   25.4431 C   0  0  0  0  0  0  0  0  0  0  0  0
    4.5012   -0.6205   25.4465 C   0  0  0  0  0  0  0  0  0  0  0  0
    4.7586   -0.0673   24.0874 C   0  0  0  0  0  0  0  0  0  0  0  0
    4.8379   -0.5340   22.3288 C   0  0  0  0  0  0  0  0  0  0  0  0
    6.2592   -0.1915   20.9602 C   0  0  0  0  0  0  0  0  0  0  0  0
    7.3490   -0.9410   20.6411 C   0  0  0  0  0  0  0  0  0  0  0  0
    8.2823   -0.8789   19.7269 N   0  0  0  0  0  0  0  0  0  0  0  0
    7.7133   -0.2788   18.7075 N   0  0  0  0  0  0  0  0  0  0  0  0
    6.5273   -0.2659   19.1909 C   0  0  0  0  0  0  0  0  0  0  0  0
    5.7365   -1.2415   17.8031 C   0  0  0  0  0  0  0  0  0  0  0  0
    6.6104   -1.1629   16.2202 C   0  0  0  0  0  0  0  0  0  0  0  0
    8.0617   -0.6021   16.1959 C   0  0  0  0  0  0  0  0  0  0  0  0
    8.3111    0.2797   17.3812 C   0  0  0  0  0  0  0  0  0  0  0  0
    4.9023   -1.7751   22.9526 C   0  0  0  0  0  0  0  0  0  0  0  0
    3.6064    1.1950   24.4928 O   0  0  0  0  0  0  0  0  0  0  0  0
    3.5203    1.1865   25.9328 C   0  0  0  0  0  0  0  0  0  0  0  0
    4.3136    0.1920   26.5145 O   0  0  0  0  0  0  0  0  0  0  0  0
    3.3191   -3.0839   23.9623 H   0  0  0  0  0  0  0  0  0  0  0  0
    3.4156   -2.2741   26.2483 H   0  0  0  0  0  0  0  0  0  0  0  0
    6.9693   -1.8927   20.7463 H   0  0  0  0  0  0  0  0  0  0  0  0
    5.5810   -2.1794   18.2918 H   0  0  0  0  0  0  0  0  0  0  0  0
    4.6560   -1.2737   17.6565 H   0  0  0  0  0  0  0  0  0  0  0  0
    5.8785   -0.8695   15.4992 H   0  0  0  0  0  0  0  0  0  0  0  0
    6.8040   -2.1117   15.6960 H   0  0  0  0  0  0  0  0  0  0  0  0
    8.4133   -0.1484   15.2655 H   0  0  0  0  0  0  0  0  0  0  0  0
    8.7757   -1.4299   16.2101 H   0  0  0  0  0  0  0  0  0  0  0  0
    9.3902    0.4076   17.4388 H   0  0  0  0  0  0  0  0  0  0  0  0
    8.0120    1.3279   17.2502 H   0  0  0  0  0  0  0  0  0  0  0  0
    5.3967   -2.4575   22.2727 H   0  0  0  0  0  0  0  0  0  0  0  0
    2.4821    1.0752   26.2518 H   0  0  0  0  0  0  0  0  0  0  0  0
    3.8521    2.1639   26.3033 H   0  0  0  0  0  0  0  0  0  0  0  0
  1  2  2  0
  2  3  1  0
  3  4  2  0
  4  5  1  0
  5  6  1  0
  6  7  1  0
  7  8  2  0
  8  9  1  0
  9 10  1  0
 10 11  1  0
 11 12  1  0
 12 13  1  0
 13 14  1  0
  5 15  2  0
  4 16  1  0
 16 17  1  0
 17 18  1  0
 15  1  1  0
 18  3  1  0
 10  6  2  0
 14  9  1  0
  1 19  1  0
  2 20  1  0
  7 21  1  0
 11 22  1  0
 11 23  1  0
 12 24  1  0
 12 25  1  0
 13 26  1  0
 13 27  1  0
 14 28  1  0
 14 29  1  0
 15 30  1  0
 17 31  1  0
 17 32  1  0
M  END
>  <Energy>  (664) 
637.26346974715636

>  <compound_id>  (664) 
62839

>  <target_id>  (664) 
1

>  <reference_id>  (664) 
60

>  <inspiration_ids>  (664) 
[13, 60]

>  <energy_score>  (664) 
570.6658382203536

>  <distance_score>  (664) 
6.568239342422878

>  <path>  (664) 
/opt/xchem-fragalysis-2/maxwin/BulkDock/SCRATCH/511025/C62839-P60/C62839-P60.minimised.mol

>  <scratch_subdir>  (664) 
/opt/xchem-fragalysis-2/maxwin/BulkDock/SCRATCH/511025/C62839-P60

>  <fragmenstein_runtime>  (664) 
5.45669412612915

>  <fragmenstein_outcome>  (664) 
too moved

>  <fragmenstein_mode>  (664) 
expansion

>  <fragmenstein_error>  (664) 


$$$$
C35648-P13
     RDKit          3D

 40 44  0  0  0  0  0  0  0  0999 V2000
   11.6229   -6.5094   21.8440 C   0  0  0  0  0  0  0  0  0  0  0  0
   10.4649   -6.0477   21.0554 C   0  0  0  0  0  0  0  0  0  0  0  0
    9.5335   -4.9544   21.0802 C   0  0  0  0  0  0  0  0  0  0  0  0
    7.5185   -4.7431   21.6808 N   0  0  0  0  0  0  0  0  0  0  0  0
    6.6175   -6.2025   22.3083 N   0  0  0  0  0  0  0  0  0  0  0  0
    6.2638   -6.2609   23.6180 C   0  0  0  0  0  0  0  0  0  0  0  0
    6.1136   -5.0774   24.2538 C   0  0  0  0  0  0  0  0  0  0  0  0
    5.4180   -4.6075   25.4746 C   0  0  0  0  0  0  0  0  0  0  0  0
    4.7214   -5.3786   26.4500 N   0  0  0  0  0  0  0  0  0  0  0  0
    4.5381   -4.6958   27.7734 C   0  0  0  0  0  0  0  0  0  0  0  0
    3.4794   -3.5901   27.9317 C   0  0  0  0  0  0  0  0  0  0  0  0
    3.8680   -2.2216   27.9203 C   0  0  0  0  0  0  0  0  0  0  0  0
    2.9474   -1.1717   28.0781 C   0  0  0  0  0  0  0  0  0  0  0  0
    1.6291   -1.5020   28.2767 C   0  0  0  0  0  0  0  0  0  0  0  0
    1.2344   -2.8166   28.3492 C   0  0  0  0  0  0  0  0  0  0  0  0
    2.1282   -3.8730   28.1899 C   0  0  0  0  0  0  0  0  0  0  0  0
   -0.1066   -2.9304   28.5622 O   0  0  0  0  0  0  0  0  0  0  0  0
   -0.5196   -1.5467   28.4745 C   0  0  0  0  0  0  0  0  0  0  0  0
    0.5945   -0.6293   28.4138 O   0  0  0  0  0  0  0  0  0  0  0  0
    5.1306   -3.3090   25.5775 N   0  0  0  0  0  0  0  0  0  0  0  0
    5.3306   -2.5646   24.5172 C   0  0  0  0  0  0  0  0  0  0  0  0
    5.9147   -2.9186   23.2961 N   0  0  0  0  0  0  0  0  0  0  0  0
    6.5004   -4.1970   23.1545 C   0  0  0  0  0  0  0  0  0  0  0  0
   10.8577   -4.0862   21.8119 C   0  0  0  0  0  0  0  0  0  0  0  0
   12.1810   -4.4188   22.2286 C   0  0  0  0  0  0  0  0  0  0  0  0
   12.5544   -5.6845   22.3047 N   0  0  0  0  0  0  0  0  0  0  0  0
   11.7925   -7.5702   21.9941 H   0  0  0  0  0  0  0  0  0  0  0  0
   11.1324   -5.5935   20.2270 H   0  0  0  0  0  0  0  0  0  0  0  0
    5.9335   -7.1948   24.0367 H   0  0  0  0  0  0  0  0  0  0  0  0
    3.8106   -5.5525   26.0361 H   0  0  0  0  0  0  0  0  0  0  0  0
    4.2737   -5.4860   28.4883 H   0  0  0  0  0  0  0  0  0  0  0  0
    5.5102   -4.3225   28.1245 H   0  0  0  0  0  0  0  0  0  0  0  0
    4.9169   -1.9678   27.7638 H   0  0  0  0  0  0  0  0  0  0  0  0
    3.2650   -0.1367   28.0310 H   0  0  0  0  0  0  0  0  0  0  0  0
    1.7830   -4.8941   28.2779 H   0  0  0  0  0  0  0  0  0  0  0  0
   -1.1515   -1.4083   27.5908 H   0  0  0  0  0  0  0  0  0  0  0  0
   -1.1129   -1.3095   29.3648 H   0  0  0  0  0  0  0  0  0  0  0  0
    4.9013   -1.5655   24.5669 H   0  0  0  0  0  0  0  0  0  0  0  0
   10.6931   -3.0985   22.2153 H   0  0  0  0  0  0  0  0  0  0  0  0
   12.8545   -3.6754   22.6423 H   0  0  0  0  0  0  0  0  0  0  0  0
  1  2  2  0
  2  3  1  0
  3  4  1  0
  4  5  1  0
  5  6  2  0
  6  7  1  0
  7  8  2  0
  8  9  1  0
  9 10  1  0
 10 11  1  0
 11 12  2  0
 12 13  1  0
 13 14  2  0
 14 15  1  0
 15 16  2  0
 15 17  1  0
 17 18  1  0
 18 19  1  0
  8 20  1  0
 20 21  2  0
 21 22  1  0
 22 23  2  0
  3 24  2  0
 24 25  1  0
 25 26  2  0
 26  1  1  0
 23  4  1  0
 23  7  1  0
 16 11  1  0
 19 14  1  0
  1 27  1  0
  2 28  1  0
  6 29  1  0
  9 30  1  0
 10 31  1  0
 10 32  1  0
 12 33  1  0
 13 34  1  0
 16 35  1  0
 18 36  1  0
 18 37  1  0
 21 38  1  0
 24 39  1  0
 25 40  1  0
M  END
>  <Energy>  (665) 
614.69404476327202

>  <compound_id>  (665) 
35648

>  <target_id>  (665) 
1

>  <reference_id>  (665) 
13

>  <inspiration_ids>  (665) 
[13, 60]

>  <energy_score>  (665) 
518.210603867592

>  <distance_score>  (665) 
6.551540659503835

>  <path>  (665) 
/opt/xchem-fragalysis-2/maxwin/BulkDock/SCRATCH/511025/C35648-P13/C35648-P13.minimised.mol

>  <scratch_subdir>  (665) 
/opt/xchem-fragalysis-2/maxwin/BulkDock/SCRATCH/511025/C35648-P13

>  <fragmenstein_runtime>  (665) 
6.800011157989502

>  <fragmenstein_outcome>  (665) 
too moved

>  <fragmenstein_mode>  (665) 
expansion

>  <fragmenstein_error>  (665) 


$$$$
C35648-P60
     RDKit          3D

 40 44  0  0  0  0  0  0  0  0999 V2000
    7.0631   -0.0962   19.1486 C   0  0  0  0  0  0  0  0  0  0  0  0
    6.8961   -0.2719   20.6429 C   0  0  0  0  0  0  0  0  0  0  0  0
    6.2961    0.8615   21.7522 C   0  0  0  0  0  0  0  0  0  0  0  0
    4.9512    0.1559   23.0419 N   0  0  0  0  0  0  0  0  0  0  0  0
    4.9654   -1.4954   23.1959 N   0  0  0  0  0  0  0  0  0  0  0  0
    4.3679   -1.8400   24.3625 C   0  0  0  0  0  0  0  0  0  0  0  0
    4.0956   -0.9364   25.3636 C   0  0  0  0  0  0  0  0  0  0  0  0
    3.4752   -0.9504   26.6550 C   0  0  0  0  0  0  0  0  0  0  0  0
    2.7312   -2.0148   27.1979 N   0  0  0  0  0  0  0  0  0  0  0  0
    2.0584   -1.8371   28.5004 C   0  0  0  0  0  0  0  0  0  0  0  0
    1.0588   -0.6888   28.6033 C   0  0  0  0  0  0  0  0  0  0  0  0
    1.4357    0.5339   29.2130 C   0  0  0  0  0  0  0  0  0  0  0  0
    0.6643    1.6916   29.0695 C   0  0  0  0  0  0  0  0  0  0  0  0
   -0.4914    1.5943   28.3332 C   0  0  0  0  0  0  0  0  0  0  0  0
   -0.9389    0.3893   27.8541 C   0  0  0  0  0  0  0  0  0  0  0  0
   -0.2096   -0.7733   28.0217 C   0  0  0  0  0  0  0  0  0  0  0  0
   -2.1046    0.5171   27.1605 O   0  0  0  0  0  0  0  0  0  0  0  0
   -2.2576    1.9547   27.1466 C   0  0  0  0  0  0  0  0  0  0  0  0
   -1.2923    2.6302   27.9735 O   0  0  0  0  0  0  0  0  0  0  0  0
    3.5174    0.1875   27.3648 N   0  0  0  0  0  0  0  0  0  0  0  0
    3.6797    1.3134   26.6945 C   0  0  0  0  0  0  0  0  0  0  0  0
    3.9632    1.4417   25.4036 N   0  0  0  0  0  0  0  0  0  0  0  0
    4.3699    0.2709   24.7524 C   0  0  0  0  0  0  0  0  0  0  0  0
    7.2296    2.0537   21.2380 C   0  0  0  0  0  0  0  0  0  0  0  0
    7.4217    2.0187   19.4483 C   0  0  0  0  0  0  0  0  0  0  0  0
    7.2127    1.0572   18.4859 N   0  0  0  0  0  0  0  0  0  0  0  0
    6.6539   -0.8332   18.4947 H   0  0  0  0  0  0  0  0  0  0  0  0
    6.7414   -1.2970   20.8886 H   0  0  0  0  0  0  0  0  0  0  0  0
    4.0436   -2.8522   24.5146 H   0  0  0  0  0  0  0  0  0  0  0  0
    2.1227   -2.3629   26.4528 H   0  0  0  0  0  0  0  0  0  0  0  0
    1.5289   -2.7697   28.7323 H   0  0  0  0  0  0  0  0  0  0  0  0
    2.8196   -1.7351   29.2847 H   0  0  0  0  0  0  0  0  0  0  0  0
    2.4012    0.6071   29.7127 H   0  0  0  0  0  0  0  0  0  0  0  0
    1.0005    2.6437   29.4631 H   0  0  0  0  0  0  0  0  0  0  0  0
   -0.5734   -1.7176   27.6465 H   0  0  0  0  0  0  0  0  0  0  0  0
   -2.1452    2.3066   26.1138 H   0  0  0  0  0  0  0  0  0  0  0  0
   -3.2621    2.2101   27.4889 H   0  0  0  0  0  0  0  0  0  0  0  0
    3.5475    2.2333   27.2527 H   0  0  0  0  0  0  0  0  0  0  0  0
    7.2510    3.0392   21.7046 H   0  0  0  0  0  0  0  0  0  0  0  0
    7.3851    2.9763   18.8358 H   0  0  0  0  0  0  0  0  0  0  0  0
  1  2  2  0
  2  3  1  0
  3  4  1  0
  4  5  1  0
  5  6  2  0
  6  7  1  0
  7  8  2  0
  8  9  1  0
  9 10  1  0
 10 11  1  0
 11 12  2  0
 12 13  1  0
 13 14  2  0
 14 15  1  0
 15 16  2  0
 15 17  1  0
 17 18  1  0
 18 19  1  0
  8 20  1  0
 20 21  2  0
 21 22  1  0
 22 23  2  0
  3 24  2  0
 24 25  1  0
 25 26  2  0
 26  1  1  0
 23  4  1  0
 23  7  1  0
 16 11  1  0
 19 14  1  0
  1 27  1  0
  2 28  1  0
  6 29  1  0
  9 30  1  0
 10 31  1  0
 10 32  1  0
 12 33  1  0
 13 34  1  0
 16 35  1  0
 18 36  1  0
 18 37  1  0
 21 38  1  0
 24 39  1  0
 25 40  1  0
M  END
>  <Energy>  (666) 
438.15100609359604

>  <compound_id>  (666) 
35648

>  <target_id>  (666) 
1

>  <reference_id>  (666) 
60

>  <inspiration_ids>  (666) 
[13, 60]

>  <energy_score>  (666) 
341.6675651979221

>  <distance_score>  (666) 
5.408190327703313

>  <path>  (666) 
/opt/xchem-fragalysis-2/maxwin/BulkDock/SCRATCH/511025/C35648-P60/C35648-P60.minimised.mol

>  <scratch_subdir>  (666) 
/opt/xchem-fragalysis-2/maxwin/BulkDock/SCRATCH/511025/C35648-P60

>  <fragmenstein_runtime>  (666) 
8.555739164352417

>  <fragmenstein_outcome>  (666) 
too moved

>  <fragmenstein_mode>  (666) 
expansion

>  <fragmenstein_error>  (666) 


$$$$
C16950-P13
     RDKit          3D

 41 43  0  0  0  0  0  0  0  0999 V2000
    4.0093    3.2486   28.5670 C   0  0  0  0  0  0  0  0  0  0  0  0
    2.9970    2.8107   27.5449 N   0  0  0  0  0  0  0  0  0  0  0  0
    2.1431    2.6575   28.7734 C   0  0  0  0  0  0  0  0  0  0  0  0
    0.7747    2.1764   28.2812 C   0  0  0  0  0  0  0  0  0  0  0  0
    0.5007    0.7958   28.1381 C   0  0  0  0  0  0  0  0  0  0  0  0
   -0.7020    0.3611   27.5745 C   0  0  0  0  0  0  0  0  0  0  0  0
   -1.5934    1.3196   27.1471 C   0  0  0  0  0  0  0  0  0  0  0  0
   -1.3436    2.6591   27.2994 C   0  0  0  0  0  0  0  0  0  0  0  0
   -0.1771    3.1196   27.8636 C   0  0  0  0  0  0  0  0  0  0  0  0
   -2.3383    3.4369   26.8023 O   0  0  0  0  0  0  0  0  0  0  0  0
   -3.2308    2.4355   26.2817 C   0  0  0  0  0  0  0  0  0  0  0  0
   -2.7647    1.0888   26.5015 O   0  0  0  0  0  0  0  0  0  0  0  0
    3.5634    1.8368   26.6836 C   0  0  0  0  0  0  0  0  0  0  0  0
    3.5819    0.6365   26.7640 O   0  0  0  0  0  0  0  0  0  0  0  0
    4.1852    2.4721   25.3873 C   0  0  0  0  0  0  0  0  0  0  0  0
    4.6922    3.5524   25.4252 O   0  0  0  0  0  0  0  0  0  0  0  0
    4.0736    1.5316   24.3218 N   0  0  0  0  0  0  0  0  0  0  0  0
    4.6342    1.5450   22.9435 C   0  0  0  0  0  0  0  0  0  0  0  0
    4.7503    0.7539   21.0903 C   0  0  0  0  0  0  0  0  0  0  0  0
    6.4732    0.5392   19.9259 C   0  0  0  0  0  0  0  0  0  0  0  0
    6.6044    0.3236   18.4618 C   0  0  0  0  0  0  0  0  0  0  0  0
    7.9092    1.0345   17.5836 S   0  0  0  0  0  0  0  0  0  0  0  0
    8.2851    1.9166   18.9524 C   0  0  0  0  0  0  0  0  0  0  0  0
    7.5614    1.6229   19.9997 N   0  0  0  0  0  0  0  0  0  0  0  0
    4.9140    3.5060   27.9965 H   0  0  0  0  0  0  0  0  0  0  0  0
    3.7689    4.1909   29.0817 H   0  0  0  0  0  0  0  0  0  0  0  0
    4.3659    2.4471   29.2332 H   0  0  0  0  0  0  0  0  0  0  0  0
    1.9364    3.5974   29.3105 H   0  0  0  0  0  0  0  0  0  0  0  0
    2.4851    1.8637   29.4578 H   0  0  0  0  0  0  0  0  0  0  0  0
    1.2482    0.0559   28.4190 H   0  0  0  0  0  0  0  0  0  0  0  0
   -0.9094   -0.6937   27.4245 H   0  0  0  0  0  0  0  0  0  0  0  0
    0.0042    4.1871   27.9382 H   0  0  0  0  0  0  0  0  0  0  0  0
   -4.2161    2.5429   26.7433 H   0  0  0  0  0  0  0  0  0  0  0  0
   -3.3319    2.6031   25.2054 H   0  0  0  0  0  0  0  0  0  0  0  0
    3.5003    0.7462   24.6305 H   0  0  0  0  0  0  0  0  0  0  0  0
    4.8930    0.5386   23.3231 H   0  0  0  0  0  0  0  0  0  0  0  0
    3.6556    2.0129   22.7244 H   0  0  0  0  0  0  0  0  0  0  0  0
    3.7471    1.1191   21.0000 H   0  0  0  0  0  0  0  0  0  0  0  0
    4.6895   -0.3041   21.5037 H   0  0  0  0  0  0  0  0  0  0  0  0
    5.9202   -0.1751   17.7873 H   0  0  0  0  0  0  0  0  0  0  0  0
    9.0492    2.6843   18.9775 H   0  0  0  0  0  0  0  0  0  0  0  0
  1  2  1  0
  2  3  1  0
  3  4  1  0
  4  5  2  0
  5  6  1  0
  6  7  2  0
  7  8  1  0
  8  9  2  0
  8 10  1  0
 10 11  1  0
 11 12  1  0
  2 13  1  0
 13 14  2  0
 13 15  1  0
 15 16  2  0
 15 17  1  0
 17 18  1  0
 18 19  1  0
 19 20  1  0
 20 21  2  0
 21 22  1  0
 22 23  1  0
 23 24  2  0
  9  4  1  0
 24 20  1  0
 12  7  1  0
  1 25  1  0
  1 26  1  0
  1 27  1  0
  3 28  1  0
  3 29  1  0
  5 30  1  0
  6 31  1  0
  9 32  1  0
 11 33  1  0
 11 34  1  0
 17 35  1  0
 18 36  1  0
 18 37  1  0
 19 38  1  0
 19 39  1  0
 21 40  1  0
 23 41  1  0
M  END
>  <Energy>  (667) 
422.63880145543203

>  <compound_id>  (667) 
16950

>  <target_id>  (667) 
1

>  <reference_id>  (667) 
13

>  <inspiration_ids>  (667) 
[13, 60]

>  <energy_score>  (667) 
300.27431742260114

>  <distance_score>  (667) 
5.768295840299453

>  <path>  (667) 
/opt/xchem-fragalysis-2/maxwin/BulkDock/SCRATCH/511025/C16950-P13/C16950-P13.minimised.mol

>  <scratch_subdir>  (667) 
/opt/xchem-fragalysis-2/maxwin/BulkDock/SCRATCH/511025/C16950-P13

>  <fragmenstein_runtime>  (667) 
13.76833701133728

>  <fragmenstein_outcome>  (667) 
too moved

>  <fragmenstein_mode>  (667) 
expansion

>  <fragmenstein_error>  (667) 


$$$$
C16950-P60
     RDKit          3D

 41 43  0  0  0  0  0  0  0  0999 V2000
    2.9231    6.0922   23.7436 C   0  0  0  0  0  0  0  0  0  0  0  0
    3.2572    4.8917   22.9044 N   0  0  0  0  0  0  0  0  0  0  0  0
    2.8519    4.1634   24.1712 C   0  0  0  0  0  0  0  0  0  0  0  0
    1.3907    3.8375   24.4824 C   0  0  0  0  0  0  0  0  0  0  0  0
    0.4046    3.8361   23.4738 C   0  0  0  0  0  0  0  0  0  0  0  0
   -0.9225    3.4983   23.7613 C   0  0  0  0  0  0  0  0  0  0  0  0
   -1.2355    3.1555   25.0568 C   0  0  0  0  0  0  0  0  0  0  0  0
   -0.2882    3.1319   26.0492 C   0  0  0  0  0  0  0  0  0  0  0  0
    1.0300    3.4539   25.7935 C   0  0  0  0  0  0  0  0  0  0  0  0
   -0.8101    2.7481   27.2461 O   0  0  0  0  0  0  0  0  0  0  0  0
   -2.2169    2.6927   26.9173 C   0  0  0  0  0  0  0  0  0  0  0  0
   -2.4595    2.7679   25.4991 O   0  0  0  0  0  0  0  0  0  0  0  0
    4.5449    5.0608   22.2932 C   0  0  0  0  0  0  0  0  0  0  0  0
    5.6439    4.7438   22.6786 O   0  0  0  0  0  0  0  0  0  0  0  0
    4.4890    5.7515   20.8649 C   0  0  0  0  0  0  0  0  0  0  0  0
    3.5005    6.3371   20.5365 O   0  0  0  0  0  0  0  0  0  0  0  0
    5.7639    5.6106   20.2030 N   0  0  0  0  0  0  0  0  0  0  0  0
    6.2766    6.2135   18.9805 C   0  0  0  0  0  0  0  0  0  0  0  0
    6.2343    5.3367   17.7179 C   0  0  0  0  0  0  0  0  0  0  0  0
    7.5288    4.6726   17.2954 C   0  0  0  0  0  0  0  0  0  0  0  0
    7.6229    3.5070   16.5564 C   0  0  0  0  0  0  0  0  0  0  0  0
    9.2568    3.0772   16.2720 S   0  0  0  0  0  0  0  0  0  0  0  0
    9.7370    4.4682   17.1454 C   0  0  0  0  0  0  0  0  0  0  0  0
    8.7650    5.2143   17.6386 N   0  0  0  0  0  0  0  0  0  0  0  0
    3.0574    6.9560   23.0751 H   0  0  0  0  0  0  0  0  0  0  0  0
    1.8761    6.1920   24.0572 H   0  0  0  0  0  0  0  0  0  0  0  0
    3.6514    6.2960   24.5447 H   0  0  0  0  0  0  0  0  0  0  0  0
    3.4567    4.4014   25.0645 H   0  0  0  0  0  0  0  0  0  0  0  0
    3.2328    3.1600   23.9368 H   0  0  0  0  0  0  0  0  0  0  0  0
    0.6740    4.0997   22.4503 H   0  0  0  0  0  0  0  0  0  0  0  0
   -1.6829    3.5163   22.9874 H   0  0  0  0  0  0  0  0  0  0  0  0
    1.7632    3.4128   26.5928 H   0  0  0  0  0  0  0  0  0  0  0  0
   -2.6247    1.7486   27.2928 H   0  0  0  0  0  0  0  0  0  0  0  0
   -2.7282    3.5268   27.4114 H   0  0  0  0  0  0  0  0  0  0  0  0
    6.3469    4.9688   20.7386 H   0  0  0  0  0  0  0  0  0  0  0  0
    7.2846    6.5768   19.2014 H   0  0  0  0  0  0  0  0  0  0  0  0
    5.6447    7.0917   18.8021 H   0  0  0  0  0  0  0  0  0  0  0  0
    5.9479    5.9805   16.8752 H   0  0  0  0  0  0  0  0  0  0  0  0
    5.4465    4.5798   17.8140 H   0  0  0  0  0  0  0  0  0  0  0  0
    6.8094    2.9000   16.2010 H   0  0  0  0  0  0  0  0  0  0  0  0
   10.7813    4.7102   17.2926 H   0  0  0  0  0  0  0  0  0  0  0  0
  1  2  1  0
  2  3  1  0
  3  4  1  0
  4  5  2  0
  5  6  1  0
  6  7  2  0
  7  8  1  0
  8  9  2  0
  8 10  1  0
 10 11  1  0
 11 12  1  0
  2 13  1  0
 13 14  2  0
 13 15  1  0
 15 16  2  0
 15 17  1  0
 17 18  1  0
 18 19  1  0
 19 20  1  0
 20 21  2  0
 21 22  1  0
 22 23  1  0
 23 24  2  0
  9  4  1  0
 24 20  1  0
 12  7  1  0
  1 25  1  0
  1 26  1  0
  1 27  1  0
  3 28  1  0
  3 29  1  0
  5 30  1  0
  6 31  1  0
  9 32  1  0
 11 33  1  0
 11 34  1  0
 17 35  1  0
 18 36  1  0
 18 37  1  0
 19 38  1  0
 19 39  1  0
 21 40  1  0
 23 41  1  0
M  END
>  <Energy>  (668) 
141.70393059387618

>  <compound_id>  (668) 
16950

>  <target_id>  (668) 
1

>  <reference_id>  (668) 
60

>  <inspiration_ids>  (668) 
[13, 60]

>  <energy_score>  (668) 
19.339446561054444

>  <distance_score>  (668) 
8.205760215065089

>  <path>  (668) 
/opt/xchem-fragalysis-2/maxwin/BulkDock/SCRATCH/511025/C16950-P60/C16950-P60.minimised.mol

>  <scratch_subdir>  (668) 
/opt/xchem-fragalysis-2/maxwin/BulkDock/SCRATCH/511025/C16950-P60

>  <fragmenstein_runtime>  (668) 
9.488157987594604

>  <fragmenstein_outcome>  (668) 
too moved

>  <fragmenstein_mode>  (668) 
expansion

>  <fragmenstein_error>  (668) 


$$$$
C62847-P13
     RDKit          3D

 43 45  0  0  0  0  0  0  0  0999 V2000
    7.0750   -0.9541   28.6513 C   0  0  0  0  0  0  0  0  0  0  0  0
    6.2477   -0.8873   27.4330 N   0  0  0  0  0  0  0  0  0  0  0  0
    7.1821   -1.6082   26.2465 C   0  0  0  0  0  0  0  0  0  0  0  0
    8.6364   -1.0676   25.8399 C   0  0  0  0  0  0  0  0  0  0  0  0
    9.2609    0.1565   25.6253 C   0  0  0  0  0  0  0  0  0  0  0  0
   10.5256    0.0330   25.0606 N   0  0  0  0  0  0  0  0  0  0  0  0
   10.7145   -1.2632   25.0330 C   0  0  0  0  0  0  0  0  0  0  0  0
    9.6317   -1.9968   25.4488 O   0  0  0  0  0  0  0  0  0  0  0  0
    4.7952   -1.6477   27.7831 C   0  0  0  0  0  0  0  0  0  0  0  0
    3.5830   -0.9930   28.6755 C   0  0  0  0  0  0  0  0  0  0  0  0
    4.1667   -0.1716   29.6943 O   0  0  0  0  0  0  0  0  0  0  0  0
    2.5640   -1.9930   29.3683 C   0  0  0  0  0  0  0  0  0  0  0  0
    1.4715   -2.3871   28.5305 O   0  0  0  0  0  0  0  0  0  0  0  0
    0.1787   -2.0132   29.0111 C   0  0  0  0  0  0  0  0  0  0  0  0
   -0.2471   -0.6505   28.5160 C   0  0  0  0  0  0  0  0  0  0  0  0
    0.4546    0.5174   28.8929 C   0  0  0  0  0  0  0  0  0  0  0  0
    0.0944    1.7755   28.4016 C   0  0  0  0  0  0  0  0  0  0  0  0
   -0.9959    1.8482   27.5680 C   0  0  0  0  0  0  0  0  0  0  0  0
   -1.7132    0.7312   27.2226 C   0  0  0  0  0  0  0  0  0  0  0  0
   -1.3685   -0.5251   27.6783 C   0  0  0  0  0  0  0  0  0  0  0  0
   -2.7508    1.0261   26.3956 O   0  0  0  0  0  0  0  0  0  0  0  0
   -2.6601    2.4630   26.3384 C   0  0  0  0  0  0  0  0  0  0  0  0
   -1.4916    2.9821   27.0069 O   0  0  0  0  0  0  0  0  0  0  0  0
    6.5905   -0.4710   29.5012 H   0  0  0  0  0  0  0  0  0  0  0  0
    7.3034   -1.9881   28.9317 H   0  0  0  0  0  0  0  0  0  0  0  0
    8.0183   -0.4189   28.5031 H   0  0  0  0  0  0  0  0  0  0  0  0
    6.4810   -1.6119   25.4281 H   0  0  0  0  0  0  0  0  0  0  0  0
    7.3107   -2.6310   26.6221 H   0  0  0  0  0  0  0  0  0  0  0  0
    8.8394    1.1318   25.8275 H   0  0  0  0  0  0  0  0  0  0  0  0
   11.5839   -1.8196   24.7142 H   0  0  0  0  0  0  0  0  0  0  0  0
    5.0905   -2.5969   28.2461 H   0  0  0  0  0  0  0  0  0  0  0  0
    4.3730   -1.8849   26.7996 H   0  0  0  0  0  0  0  0  0  0  0  0
    3.0337   -0.3271   28.0013 H   0  0  0  0  0  0  0  0  0  0  0  0
    4.7355    0.4594   29.2119 H   0  0  0  0  0  0  0  0  0  0  0  0
    3.1095   -2.9051   29.6348 H   0  0  0  0  0  0  0  0  0  0  0  0
    2.2119   -1.5648   30.3146 H   0  0  0  0  0  0  0  0  0  0  0  0
   -0.5179   -2.7709   28.6343 H   0  0  0  0  0  0  0  0  0  0  0  0
    0.1218   -2.0642   30.1052 H   0  0  0  0  0  0  0  0  0  0  0  0
    1.2972    0.4598   29.5761 H   0  0  0  0  0  0  0  0  0  0  0  0
    0.6426    2.6687   28.6786 H   0  0  0  0  0  0  0  0  0  0  0  0
   -1.9451   -1.3902   27.3616 H   0  0  0  0  0  0  0  0  0  0  0  0
   -3.5558    2.8939   26.7963 H   0  0  0  0  0  0  0  0  0  0  0  0
   -2.6223    2.7681   25.2867 H   0  0  0  0  0  0  0  0  0  0  0  0
  1  2  1  0
  2  3  1  0
  3  4  1  0
  4  5  2  0
  5  6  1  0
  6  7  2  0
  7  8  1  0
  2  9  1  0
  9 10  1  0
 10 11  1  0
 10 12  1  0
 12 13  1  0
 13 14  1  0
 14 15  1  0
 15 16  2  0
 16 17  1  0
 17 18  2  0
 18 19  1  0
 19 20  2  0
 19 21  1  0
 21 22  1  0
 22 23  1  0
  8  4  1  0
 20 15  1  0
 23 18  1  0
  1 24  1  0
  1 25  1  0
  1 26  1  0
  3 27  1  0
  3 28  1  0
  5 29  1  0
  7 30  1  0
  9 31  1  0
  9 32  1  0
 10 33  1  0
 11 34  1  0
 12 35  1  0
 12 36  1  0
 14 37  1  0
 14 38  1  0
 16 39  1  0
 17 40  1  0
 20 41  1  0
 22 42  1  0
 22 43  1  0
M  END
>  <Energy>  (669) 
133.47117116431511

>  <compound_id>  (669) 
62847

>  <target_id>  (669) 
1

>  <reference_id>  (669) 
13

>  <inspiration_ids>  (669) 
[13, 60]

>  <energy_score>  (669) 
-4.984282751988189

>  <distance_score>  (669) 
6.294822043551874

>  <path>  (669) 
/opt/xchem-fragalysis-2/maxwin/BulkDock/SCRATCH/511025/C62847-P13/C62847-P13.minimised.mol

>  <scratch_subdir>  (669) 
/opt/xchem-fragalysis-2/maxwin/BulkDock/SCRATCH/511025/C62847-P13

>  <fragmenstein_runtime>  (669) 
4.694918394088745

>  <fragmenstein_outcome>  (669) 
too moved

>  <fragmenstein_mode>  (669) 
expansion

>  <fragmenstein_error>  (669) 


$$$$
C62847-P60
     RDKit          3D

 43 45  0  0  0  0  0  0  0  0999 V2000
    8.1586   -0.7084   28.5586 C   0  0  0  0  0  0  0  0  0  0  0  0
    7.5024   -0.8335   27.2577 N   0  0  0  0  0  0  0  0  0  0  0  0
    8.6009   -1.6864   26.2332 C   0  0  0  0  0  0  0  0  0  0  0  0
   10.0811   -1.1743   25.6024 C   0  0  0  0  0  0  0  0  0  0  0  0
   11.2700   -1.8789   25.3314 C   0  0  0  0  0  0  0  0  0  0  0  0
   12.1307   -1.1923   24.4892 N   0  0  0  0  0  0  0  0  0  0  0  0
   11.4874   -0.0820   24.2349 C   0  0  0  0  0  0  0  0  0  0  0  0
   10.2738    0.0194   24.8629 O   0  0  0  0  0  0  0  0  0  0  0  0
    5.9438   -1.5250   27.5517 C   0  0  0  0  0  0  0  0  0  0  0  0
    4.7102   -1.0297   28.6141 C   0  0  0  0  0  0  0  0  0  0  0  0
    4.5535    0.3862   28.4490 O   0  0  0  0  0  0  0  0  0  0  0  0
    3.2904   -1.7684   28.3867 C   0  0  0  0  0  0  0  0  0  0  0  0
    2.3080   -1.6371   29.4421 O   0  0  0  0  0  0  0  0  0  0  0  0
    0.9552   -1.7997   28.9783 C   0  0  0  0  0  0  0  0  0  0  0  0
    0.3236   -0.4941   28.5317 C   0  0  0  0  0  0  0  0  0  0  0  0
    1.0387    0.7238   28.5839 C   0  0  0  0  0  0  0  0  0  0  0  0
    0.5007    1.9129   28.0865 C   0  0  0  0  0  0  0  0  0  0  0  0
   -0.7582    1.8648   27.5412 C   0  0  0  0  0  0  0  0  0  0  0  0
   -1.4840    0.7004   27.5090 C   0  0  0  0  0  0  0  0  0  0  0  0
   -0.9875   -0.4845   28.0227 C   0  0  0  0  0  0  0  0  0  0  0  0
   -2.6751    0.8651   26.8727 O   0  0  0  0  0  0  0  0  0  0  0  0
   -2.6519    2.2835   26.5952 C   0  0  0  0  0  0  0  0  0  0  0  0
   -1.4099    2.9084   26.9664 O   0  0  0  0  0  0  0  0  0  0  0  0
    7.5584   -0.0844   29.2283 H   0  0  0  0  0  0  0  0  0  0  0  0
    9.1311   -0.2177   28.4508 H   0  0  0  0  0  0  0  0  0  0  0  0
    8.3074   -1.6839   29.0323 H   0  0  0  0  0  0  0  0  0  0  0  0
    8.8766   -2.5437   26.8640 H   0  0  0  0  0  0  0  0  0  0  0  0
    7.9779   -2.0930   25.4669 H   0  0  0  0  0  0  0  0  0  0  0  0
   11.5115   -2.8795   25.6638 H   0  0  0  0  0  0  0  0  0  0  0  0
   11.7857    0.7454   23.6085 H   0  0  0  0  0  0  0  0  0  0  0  0
    6.1849   -2.5541   27.8317 H   0  0  0  0  0  0  0  0  0  0  0  0
    5.5021   -1.4833   26.5525 H   0  0  0  0  0  0  0  0  0  0  0  0
    5.0574   -1.2052   29.6375 H   0  0  0  0  0  0  0  0  0  0  0  0
    5.3813    0.7125   28.0467 H   0  0  0  0  0  0  0  0  0  0  0  0
    3.4825   -2.8346   28.2701 H   0  0  0  0  0  0  0  0  0  0  0  0
    2.8759   -1.3824   27.4474 H   0  0  0  0  0  0  0  0  0  0  0  0
    0.3795   -2.1784   29.8299 H   0  0  0  0  0  0  0  0  0  0  0  0
    0.9162   -2.5485   28.1787 H   0  0  0  0  0  0  0  0  0  0  0  0
    2.0454    0.7529   28.9983 H   0  0  0  0  0  0  0  0  0  0  0  0
    1.0688    2.8360   28.1103 H   0  0  0  0  0  0  0  0  0  0  0  0
   -1.5800   -1.3928   27.9794 H   0  0  0  0  0  0  0  0  0  0  0  0
   -3.4720    2.7663   27.1297 H   0  0  0  0  0  0  0  0  0  0  0  0
   -2.8046    2.4322   25.5213 H   0  0  0  0  0  0  0  0  0  0  0  0
  1  2  1  0
  2  3  1  0
  3  4  1  0
  4  5  2  0
  5  6  1  0
  6  7  2  0
  7  8  1  0
  2  9  1  0
  9 10  1  0
 10 11  1  0
 10 12  1  0
 12 13  1  0
 13 14  1  0
 14 15  1  0
 15 16  2  0
 16 17  1  0
 17 18  2  0
 18 19  1  0
 19 20  2  0
 19 21  1  0
 21 22  1  0
 22 23  1  0
  8  4  1  0
 20 15  1  0
 23 18  1  0
  1 24  1  0
  1 25  1  0
  1 26  1  0
  3 27  1  0
  3 28  1  0
  5 29  1  0
  7 30  1  0
  9 31  1  0
  9 32  1  0
 10 33  1  0
 11 34  1  0
 12 35  1  0
 12 36  1  0
 14 37  1  0
 14 38  1  0
 16 39  1  0
 17 40  1  0
 20 41  1  0
 22 42  1  0
 22 43  1  0
M  END
>  <Energy>  (670) 
167.44188905913111

>  <compound_id>  (670) 
62847

>  <target_id>  (670) 
1

>  <reference_id>  (670) 
60

>  <inspiration_ids>  (670) 
[13, 60]

>  <energy_score>  (670) 
28.986435142827872

>  <distance_score>  (670) 
6.1254479744589725

>  <path>  (670) 
/opt/xchem-fragalysis-2/maxwin/BulkDock/SCRATCH/511025/C62847-P60/C62847-P60.minimised.mol

>  <scratch_subdir>  (670) 
/opt/xchem-fragalysis-2/maxwin/BulkDock/SCRATCH/511025/C62847-P60

>  <fragmenstein_runtime>  (670) 
6.08951735496521

>  <fragmenstein_outcome>  (670) 
too moved

>  <fragmenstein_mode>  (670) 
expansion

>  <fragmenstein_error>  (670) 


$$$$
C62852-P13
     RDKit          3D

 41 44  0  0  0  0  0  0  0  0999 V2000
    8.4036    1.3260   18.5200 C   0  0  0  0  0  0  0  0  0  0  0  0
    8.0798    1.0684   19.8127 C   0  0  0  0  0  0  0  0  0  0  0  0
    6.8651    0.0071   19.9556 C   0  0  0  0  0  0  0  0  0  0  0  0
    5.4485   -0.7406   21.2392 C   0  0  0  0  0  0  0  0  0  0  0  0
    4.8574   -1.1442   23.0352 N   0  0  0  0  0  0  0  0  0  0  0  0
    4.8766   -0.3359   24.5191 C   0  0  0  0  0  0  0  0  0  0  0  0
    4.7881   -1.4030   25.6778 C   0  0  0  0  0  0  0  0  0  0  0  0
    4.7149   -0.8370   27.1133 C   0  0  0  0  0  0  0  0  0  0  0  0
    3.9256    0.4000   27.2367 N   0  0  0  0  0  0  0  0  0  0  0  0
    2.5805    0.4107   27.6264 C   0  0  0  0  0  0  0  0  0  0  0  0
    1.9046    1.6442   27.8495 C   0  0  0  0  0  0  0  0  0  0  0  0
    0.5320    1.7323   28.1196 C   0  0  0  0  0  0  0  0  0  0  0  0
   -0.1674    0.5591   28.1930 C   0  0  0  0  0  0  0  0  0  0  0  0
    0.4680   -0.6496   28.0731 C   0  0  0  0  0  0  0  0  0  0  0  0
    1.8263   -0.7544   27.8195 C   0  0  0  0  0  0  0  0  0  0  0  0
   -0.3930   -1.6951   28.2006 O   0  0  0  0  0  0  0  0  0  0  0  0
   -1.6532   -0.9954   28.2345 C   0  0  0  0  0  0  0  0  0  0  0  0
   -1.5045    0.4330   28.3885 O   0  0  0  0  0  0  0  0  0  0  0  0
    4.3546    1.4202   26.2656 C   0  0  0  0  0  0  0  0  0  0  0  0
    4.0307    0.9085   24.8634 C   0  0  0  0  0  0  0  0  0  0  0  0
    6.8103   -0.1601   18.6064 N   0  0  0  0  0  0  0  0  0  0  0  0
    7.7457    0.4237   17.8374 O   0  0  0  0  0  0  0  0  0  0  0  0
    9.0952    1.9649   17.9920 H   0  0  0  0  0  0  0  0  0  0  0  0
    8.6711    1.5474   20.5743 H   0  0  0  0  0  0  0  0  0  0  0  0
    4.6506    0.0520   21.2702 H   0  0  0  0  0  0  0  0  0  0  0  0
    5.4788   -1.8435   20.8933 H   0  0  0  0  0  0  0  0  0  0  0  0
    3.8529   -1.1932   22.9144 H   0  0  0  0  0  0  0  0  0  0  0  0
    5.8595    0.0665   24.7528 H   0  0  0  0  0  0  0  0  0  0  0  0
    5.6886   -2.0294   25.6304 H   0  0  0  0  0  0  0  0  0  0  0  0
    3.9934   -2.1200   25.5369 H   0  0  0  0  0  0  0  0  0  0  0  0
    5.7409   -0.5876   27.4175 H   0  0  0  0  0  0  0  0  0  0  0  0
    4.4021   -1.6113   27.8223 H   0  0  0  0  0  0  0  0  0  0  0  0
    2.4527    2.5820   27.8212 H   0  0  0  0  0  0  0  0  0  0  0  0
    0.0415    2.6899   28.2513 H   0  0  0  0  0  0  0  0  0  0  0  0
    2.2507   -1.7429   27.7086 H   0  0  0  0  0  0  0  0  0  0  0  0
   -2.2204   -1.3717   29.0902 H   0  0  0  0  0  0  0  0  0  0  0  0
   -2.2122   -1.2024   27.3149 H   0  0  0  0  0  0  0  0  0  0  0  0
    3.8918    2.3986   26.4154 H   0  0  0  0  0  0  0  0  0  0  0  0
    5.4324    1.5971   26.3748 H   0  0  0  0  0  0  0  0  0  0  0  0
    2.9873    0.6434   24.8756 H   0  0  0  0  0  0  0  0  0  0  0  0
    4.1847    1.7182   24.1430 H   0  0  0  0  0  0  0  0  0  0  0  0
  1  2  2  0
  2  3  1  0
  3  4  1  0
  4  5  1  0
  5  6  1  0
  6  7  1  0
  7  8  1  0
  8  9  1  0
  9 10  1  0
 10 11  2  0
 11 12  1  0
 12 13  2  0
 13 14  1  0
 14 15  2  0
 14 16  1  0
 16 17  1  0
 17 18  1  0
  9 19  1  0
 19 20  1  0
  3 21  2  0
 21 22  1  0
 22  1  1  0
 20  6  1  0
 15 10  1  0
 18 13  1  0
  1 23  1  0
  2 24  1  0
  4 25  1  0
  4 26  1  0
  5 27  1  0
  6 28  1  0
  7 29  1  0
  7 30  1  0
  8 31  1  0
  8 32  1  0
 11 33  1  0
 12 34  1  0
 15 35  1  0
 17 36  1  0
 17 37  1  0
 19 38  1  0
 19 39  1  0
 20 40  1  0
 20 41  1  0
M  END
>  <Energy>  (671) 
313.75395843868324

>  <compound_id>  (671) 
62852

>  <target_id>  (671) 
1

>  <reference_id>  (671) 
13

>  <inspiration_ids>  (671) 
[13, 60]

>  <energy_score>  (671) 
234.91965782694308

>  <distance_score>  (671) 
6.099841732995738

>  <path>  (671) 
/opt/xchem-fragalysis-2/maxwin/BulkDock/SCRATCH/511025/C62852-P13/C62852-P13.minimised.mol

>  <scratch_subdir>  (671) 
/opt/xchem-fragalysis-2/maxwin/BulkDock/SCRATCH/511025/C62852-P13

>  <fragmenstein_runtime>  (671) 
8.137558221817017

>  <fragmenstein_outcome>  (671) 
too moved

>  <fragmenstein_mode>  (671) 
expansion

>  <fragmenstein_error>  (671) 


$$$$
C62852-P60
     RDKit          3D

 41 44  0  0  0  0  0  0  0  0999 V2000
    4.7388   -1.7509   23.9860 C   0  0  0  0  0  0  0  0  0  0  0  0
    3.9197   -2.2514   24.9402 C   0  0  0  0  0  0  0  0  0  0  0  0
    3.9069   -1.2728   25.9593 C   0  0  0  0  0  0  0  0  0  0  0  0
    3.1195   -1.1079   27.2568 C   0  0  0  0  0  0  0  0  0  0  0  0
    2.4196   -2.2861   27.8580 N   0  0  0  0  0  0  0  0  0  0  0  0
    1.3269   -1.8821   28.7354 C   0  0  0  0  0  0  0  0  0  0  0  0
    0.3266   -3.0063   29.0446 C   0  0  0  0  0  0  0  0  0  0  0  0
   -0.9270   -2.4244   29.7198 C   0  0  0  0  0  0  0  0  0  0  0  0
   -0.6599   -1.0545   30.2313 N   0  0  0  0  0  0  0  0  0  0  0  0
   -0.8625    0.0294   29.3335 C   0  0  0  0  0  0  0  0  0  0  0  0
   -0.0693    1.2114   29.4051 C   0  0  0  0  0  0  0  0  0  0  0  0
   -0.1802    2.2669   28.4933 C   0  0  0  0  0  0  0  0  0  0  0  0
   -1.1609    2.1759   27.5463 C   0  0  0  0  0  0  0  0  0  0  0  0
   -1.9647    1.0714   27.4593 C   0  0  0  0  0  0  0  0  0  0  0  0
   -1.8304   -0.0093   28.3138 C   0  0  0  0  0  0  0  0  0  0  0  0
   -2.8991    1.2069   26.4779 O   0  0  0  0  0  0  0  0  0  0  0  0
   -2.7339    2.6035   26.1499 C   0  0  0  0  0  0  0  0  0  0  0  0
   -1.4945    3.1400   26.6511 O   0  0  0  0  0  0  0  0  0  0  0  0
    0.6014   -1.0434   31.0058 C   0  0  0  0  0  0  0  0  0  0  0  0
    1.7986   -1.2661   30.0644 C   0  0  0  0  0  0  0  0  0  0  0  0
    4.6365   -0.2222   25.5859 N   0  0  0  0  0  0  0  0  0  0  0  0
    5.0100   -0.5041   24.3125 O   0  0  0  0  0  0  0  0  0  0  0  0
    5.0732   -1.9761   23.0021 H   0  0  0  0  0  0  0  0  0  0  0  0
    3.3555   -3.1586   24.9434 H   0  0  0  0  0  0  0  0  0  0  0  0
    3.8062   -0.7091   28.0152 H   0  0  0  0  0  0  0  0  0  0  0  0
    2.3867   -0.3166   27.0514 H   0  0  0  0  0  0  0  0  0  0  0  0
    3.1160   -2.8447   28.3413 H   0  0  0  0  0  0  0  0  0  0  0  0
    0.7856   -1.1544   28.1304 H   0  0  0  0  0  0  0  0  0  0  0  0
    0.0316   -3.5406   28.1366 H   0  0  0  0  0  0  0  0  0  0  0  0
    0.7912   -3.7551   29.6994 H   0  0  0  0  0  0  0  0  0  0  0  0
   -1.7894   -2.4859   29.0549 H   0  0  0  0  0  0  0  0  0  0  0  0
   -1.1939   -3.0627   30.5724 H   0  0  0  0  0  0  0  0  0  0  0  0
    0.6777    1.3469   30.1800 H   0  0  0  0  0  0  0  0  0  0  0  0
    0.4431    3.1502   28.5711 H   0  0  0  0  0  0  0  0  0  0  0  0
   -2.5025   -0.8443   28.1750 H   0  0  0  0  0  0  0  0  0  0  0  0
   -3.5735    3.1752   26.5623 H   0  0  0  0  0  0  0  0  0  0  0  0
   -2.7372    2.7148   25.0614 H   0  0  0  0  0  0  0  0  0  0  0  0
    0.7153   -0.1447   31.6220 H   0  0  0  0  0  0  0  0  0  0  0  0
    0.5667   -1.8663   31.7333 H   0  0  0  0  0  0  0  0  0  0  0  0
    2.3144   -0.3168   29.8810 H   0  0  0  0  0  0  0  0  0  0  0  0
    2.5282   -1.9163   30.5636 H   0  0  0  0  0  0  0  0  0  0  0  0
  1  2  2  0
  2  3  1  0
  3  4  1  0
  4  5  1  0
  5  6  1  0
  6  7  1  0
  7  8  1  0
  8  9  1  0
  9 10  1  0
 10 11  2  0
 11 12  1  0
 12 13  2  0
 13 14  1  0
 14 15  2  0
 14 16  1  0
 16 17  1  0
 17 18  1  0
  9 19  1  0
 19 20  1  0
  3 21  2  0
 21 22  1  0
 22  1  1  0
 20  6  1  0
 15 10  1  0
 18 13  1  0
  1 23  1  0
  2 24  1  0
  4 25  1  0
  4 26  1  0
  5 27  1  0
  6 28  1  0
  7 29  1  0
  7 30  1  0
  8 31  1  0
  8 32  1  0
 11 33  1  0
 12 34  1  0
 15 35  1  0
 17 36  1  0
 17 37  1  0
 19 38  1  0
 19 39  1  0
 20 40  1  0
 20 41  1  0
M  END
>  <Energy>  (672) 
58.097744717794285

>  <compound_id>  (672) 
62852

>  <target_id>  (672) 
1

>  <reference_id>  (672) 
60

>  <inspiration_ids>  (672) 
[13, 60]

>  <energy_score>  (672) 
-21.452498054804437

>  <distance_score>  (672) 
6.5682656878175525

>  <path>  (672) 
/opt/xchem-fragalysis-2/maxwin/BulkDock/SCRATCH/511025/C62852-P60/C62852-P60.minimised.mol

>  <scratch_subdir>  (672) 
/opt/xchem-fragalysis-2/maxwin/BulkDock/SCRATCH/511025/C62852-P60

>  <fragmenstein_runtime>  (672) 
5.130966424942017

>  <fragmenstein_outcome>  (672) 
too moved

>  <fragmenstein_mode>  (672) 
expansion

>  <fragmenstein_error>  (672) 


$$$$
C62859-P13
     RDKit          3D

 42 45  0  0  0  0  0  0  0  0999 V2000
    5.0850   -6.3431   26.6857 O   0  0  0  0  0  0  0  0  0  0  0  0
    6.1152   -5.7992   26.9937 C   0  0  0  0  0  0  0  0  0  0  0  0
    5.9445   -4.5242   27.8490 C   0  0  0  0  0  0  0  0  0  0  0  0
    5.1822   -3.4655   27.0018 C   0  0  0  0  0  0  0  0  0  0  0  0
    4.1019   -2.5827   27.6191 C   0  0  0  0  0  0  0  0  0  0  0  0
    4.2770   -1.1752   27.6284 C   0  0  0  0  0  0  0  0  0  0  0  0
    3.2239   -0.2998   27.9368 C   0  0  0  0  0  0  0  0  0  0  0  0
    1.9947   -0.8477   28.2202 C   0  0  0  0  0  0  0  0  0  0  0  0
    1.8137   -2.2104   28.2576 C   0  0  0  0  0  0  0  0  0  0  0  0
    2.8444   -3.1020   27.9809 C   0  0  0  0  0  0  0  0  0  0  0  0
    0.5168   -2.5425   28.5142 O   0  0  0  0  0  0  0  0  0  0  0  0
   -0.1073   -1.2381   28.5166 C   0  0  0  0  0  0  0  0  0  0  0  0
    0.8448   -0.1551   28.4432 O   0  0  0  0  0  0  0  0  0  0  0  0
    7.4975   -6.0873   26.6133 N   0  0  0  0  0  0  0  0  0  0  0  0
    8.0180   -7.0085   25.7165 C   0  0  0  0  0  0  0  0  0  0  0  0
    9.3927   -7.1941   25.1797 C   0  0  0  0  0  0  0  0  0  0  0  0
    9.2928   -7.4623   23.7590 C   0  0  0  0  0  0  0  0  0  0  0  0
    7.5698   -7.2458   23.7228 N   0  0  0  0  0  0  0  0  0  0  0  0
    7.1279   -7.6000   24.9256 N   0  0  0  0  0  0  0  0  0  0  0  0
    6.7471   -5.8679   22.7477 C   0  0  0  0  0  0  0  0  0  0  0  0
    7.6747   -4.6143   21.3491 C   0  0  0  0  0  0  0  0  0  0  0  0
    9.7728   -5.2562   21.1731 C   0  0  0  0  0  0  0  0  0  0  0  0
   10.4029   -6.9139   22.2129 C   0  0  0  0  0  0  0  0  0  0  0  0
    5.3764   -4.8001   28.7444 H   0  0  0  0  0  0  0  0  0  0  0  0
    6.9099   -4.1285   28.1785 H   0  0  0  0  0  0  0  0  0  0  0  0
    5.9495   -2.8106   26.5660 H   0  0  0  0  0  0  0  0  0  0  0  0
    4.7150   -3.9347   26.1245 H   0  0  0  0  0  0  0  0  0  0  0  0
    5.2333   -0.7461   27.3312 H   0  0  0  0  0  0  0  0  0  0  0  0
    3.3607    0.7751   27.9013 H   0  0  0  0  0  0  0  0  0  0  0  0
    2.6522   -4.1702   27.9626 H   0  0  0  0  0  0  0  0  0  0  0  0
   -0.7974   -1.1666   27.6684 H   0  0  0  0  0  0  0  0  0  0  0  0
   -0.6816   -1.1323   29.4437 H   0  0  0  0  0  0  0  0  0  0  0  0
    8.1008   -5.3738   26.9953 H   0  0  0  0  0  0  0  0  0  0  0  0
   10.2914   -6.8050   25.6405 H   0  0  0  0  0  0  0  0  0  0  0  0
    6.2214   -6.7118   22.2844 H   0  0  0  0  0  0  0  0  0  0  0  0
    6.3245   -5.3612   23.6315 H   0  0  0  0  0  0  0  0  0  0  0  0
    7.1713   -4.6918   20.3221 H   0  0  0  0  0  0  0  0  0  0  0  0
    7.3881   -3.5415   21.4639 H   0  0  0  0  0  0  0  0  0  0  0  0
    9.9770   -5.5470   20.1434 H   0  0  0  0  0  0  0  0  0  0  0  0
   10.5847   -4.5708   21.5327 H   0  0  0  0  0  0  0  0  0  0  0  0
   11.4071   -6.7115   22.6144 H   0  0  0  0  0  0  0  0  0  0  0  0
   10.3900   -7.7990   21.5624 H   0  0  0  0  0  0  0  0  0  0  0  0
  1  2  2  0
  2  3  1  0
  3  4  1  0
  4  5  1  0
  5  6  2  0
  6  7  1  0
  7  8  2  0
  8  9  1  0
  9 10  2  0
  9 11  1  0
 11 12  1  0
 12 13  1  0
  2 14  1  0
 14 15  1  0
 15 16  1  0
 16 17  2  0
 17 18  1  0
 18 19  1  0
 18 20  1  0
 20 21  1  0
 21 22  1  0
 22 23  1  0
 10  5  1  0
 19 15  2  0
 13  8  1  0
 23 17  1  0
  3 24  1  0
  3 25  1  0
  4 26  1  0
  4 27  1  0
  6 28  1  0
  7 29  1  0
 10 30  1  0
 12 31  1  0
 12 32  1  0
 14 33  1  0
 16 34  1  0
 20 35  1  0
 20 36  1  0
 21 37  1  0
 21 38  1  0
 22 39  1  0
 22 40  1  0
 23 41  1  0
 23 42  1  0
M  END
>  <Energy>  (673) 
436.20952430290316

>  <compound_id>  (673) 
62859

>  <target_id>  (673) 
1

>  <reference_id>  (673) 
13

>  <inspiration_ids>  (673) 
[13, 60]

>  <energy_score>  (673) 
427.2130893922415

>  <distance_score>  (673) 
7.750084221429058

>  <path>  (673) 
/opt/xchem-fragalysis-2/maxwin/BulkDock/SCRATCH/511025/C62859-P13/C62859-P13.minimised.mol

>  <scratch_subdir>  (673) 
/opt/xchem-fragalysis-2/maxwin/BulkDock/SCRATCH/511025/C62859-P13

>  <fragmenstein_runtime>  (673) 
13.241997718811035

>  <fragmenstein_outcome>  (673) 
too moved

>  <fragmenstein_mode>  (673) 
expansion

>  <fragmenstein_error>  (673) 


$$$$
C62859-P60
     RDKit          3D

 42 45  0  0  0  0  0  0  0  0999 V2000
    6.3824   -2.1674   25.2047 O   0  0  0  0  0  0  0  0  0  0  0  0
    5.6642   -2.3706   24.1942 C   0  0  0  0  0  0  0  0  0  0  0  0
    4.1715   -2.0444   24.5276 C   0  0  0  0  0  0  0  0  0  0  0  0
    4.1259   -0.9563   25.6808 C   0  0  0  0  0  0  0  0  0  0  0  0
    2.9625   -0.5659   26.5775 C   0  0  0  0  0  0  0  0  0  0  0  0
    2.7856    0.8157   26.8799 C   0  0  0  0  0  0  0  0  0  0  0  0
    1.7131    1.2776   27.6519 C   0  0  0  0  0  0  0  0  0  0  0  0
    0.8334    0.3385   28.1307 C   0  0  0  0  0  0  0  0  0  0  0  0
    1.0428   -1.0079   27.9343 C   0  0  0  0  0  0  0  0  0  0  0  0
    2.1192   -1.4908   27.2033 C   0  0  0  0  0  0  0  0  0  0  0  0
    0.0509   -1.7605   28.4884 O   0  0  0  0  0  0  0  0  0  0  0  0
   -0.8559   -0.7303   28.9280 C   0  0  0  0  0  0  0  0  0  0  0  0
   -0.3163    0.6007   28.8087 O   0  0  0  0  0  0  0  0  0  0  0  0
    6.1277   -3.0849   22.5602 N   0  0  0  0  0  0  0  0  0  0  0  0
    7.7669   -3.8350   21.9594 C   0  0  0  0  0  0  0  0  0  0  0  0
    7.9050   -4.4599   20.6250 C   0  0  0  0  0  0  0  0  0  0  0  0
    9.0525   -3.6896   19.9708 C   0  0  0  0  0  0  0  0  0  0  0  0
   10.7493   -3.4270   20.8366 N   0  0  0  0  0  0  0  0  0  0  0  0
    8.8127   -3.4488   20.8558 N   0  0  0  0  0  0  0  0  0  0  0  0
   12.1013   -3.0407   19.4151 C   0  0  0  0  0  0  0  0  0  0  0  0
   11.4774   -2.4219   17.5333 C   0  0  0  0  0  0  0  0  0  0  0  0
    9.5605   -1.7388   17.0538 C   0  0  0  0  0  0  0  0  0  0  0  0
    8.4432   -1.7837   19.0334 C   0  0  0  0  0  0  0  0  0  0  0  0
    3.7817   -2.9381   25.0327 H   0  0  0  0  0  0  0  0  0  0  0  0
    3.5319   -2.0492   23.6763 H   0  0  0  0  0  0  0  0  0  0  0  0
    4.4876   -0.0383   25.2195 H   0  0  0  0  0  0  0  0  0  0  0  0
    4.8842   -1.2079   26.4337 H   0  0  0  0  0  0  0  0  0  0  0  0
    3.4782    1.5467   26.4671 H   0  0  0  0  0  0  0  0  0  0  0  0
    1.5639    2.3353   27.8323 H   0  0  0  0  0  0  0  0  0  0  0  0
    2.2564   -2.5550   27.0555 H   0  0  0  0  0  0  0  0  0  0  0  0
   -1.7781   -0.7933   28.3373 H   0  0  0  0  0  0  0  0  0  0  0  0
   -1.1037   -0.9115   29.9799 H   0  0  0  0  0  0  0  0  0  0  0  0
    5.3411   -3.0343   21.9177 H   0  0  0  0  0  0  0  0  0  0  0  0
    7.1125   -4.8415   19.9511 H   0  0  0  0  0  0  0  0  0  0  0  0
   12.5120   -4.0823   19.3422 H   0  0  0  0  0  0  0  0  0  0  0  0
   12.8626   -2.5346   20.0371 H   0  0  0  0  0  0  0  0  0  0  0  0
   11.6287   -3.3058   16.8911 H   0  0  0  0  0  0  0  0  0  0  0  0
   12.1719   -1.6305   17.2151 H   0  0  0  0  0  0  0  0  0  0  0  0
    9.8165   -0.6490   16.8121 H   0  0  0  0  0  0  0  0  0  0  0  0
    9.0603   -1.8979   16.0694 H   0  0  0  0  0  0  0  0  0  0  0  0
    8.6636   -0.9410   19.7747 H   0  0  0  0  0  0  0  0  0  0  0  0
    7.4521   -1.1579   19.0721 H   0  0  0  0  0  0  0  0  0  0  0  0
  1  2  2  0
  2  3  1  0
  3  4  1  0
  4  5  1  0
  5  6  2  0
  6  7  1  0
  7  8  2  0
  8  9  1  0
  9 10  2  0
  9 11  1  0
 11 12  1  0
 12 13  1  0
  2 14  1  0
 14 15  1  0
 15 16  1  0
 16 17  2  0
 17 18  1  0
 18 19  1  0
 18 20  1  0
 20 21  1  0
 21 22  1  0
 22 23  1  0
 10  5  1  0
 19 15  2  0
 13  8  1  0
 23 17  1  0
  3 24  1  0
  3 25  1  0
  4 26  1  0
  4 27  1  0
  6 28  1  0
  7 29  1  0
 10 30  1  0
 12 31  1  0
 12 32  1  0
 14 33  1  0
 16 34  1  0
 20 35  1  0
 20 36  1  0
 21 37  1  0
 21 38  1  0
 22 39  1  0
 22 40  1  0
 23 41  1  0
 23 42  1  0
M  END
>  <Energy>  (674) 
1309.9488133678565

>  <compound_id>  (674) 
62859

>  <target_id>  (674) 
1

>  <reference_id>  (674) 
60

>  <inspiration_ids>  (674) 
[13, 60]

>  <energy_score>  (674) 
1300.9523784571973

>  <distance_score>  (674) 
5.968355339860937

>  <path>  (674) 
/opt/xchem-fragalysis-2/maxwin/BulkDock/SCRATCH/511025/C62859-P60/C62859-P60.minimised.mol

>  <scratch_subdir>  (674) 
/opt/xchem-fragalysis-2/maxwin/BulkDock/SCRATCH/511025/C62859-P60

>  <fragmenstein_runtime>  (674) 
12.378157615661621

>  <fragmenstein_outcome>  (674) 
too moved

>  <fragmenstein_mode>  (674) 
expansion

>  <fragmenstein_error>  (674) 


$$$$
C16450-P13
     RDKit          3D

 37 40  0  0  0  0  0  0  0  0999 V2000
    4.6036   -0.2533   25.6482 O   0  0  0  0  0  0  0  0  0  0  0  0
    4.7351   -1.4388   25.5532 C   0  0  0  0  0  0  0  0  0  0  0  0
    4.5978   -2.3196   26.8038 C   0  0  0  0  0  0  0  0  0  0  0  0
    4.1678   -1.5623   28.0773 C   0  0  0  0  0  0  0  0  0  0  0  0
    2.7972   -0.9134   28.0621 C   0  0  0  0  0  0  0  0  0  0  0  0
    2.6876    0.4798   27.8276 C   0  0  0  0  0  0  0  0  0  0  0  0
    1.4470    1.1219   27.7707 C   0  0  0  0  0  0  0  0  0  0  0  0
    0.3262    0.3492   27.9486 C   0  0  0  0  0  0  0  0  0  0  0  0
    0.4158   -0.9986   28.2070 C   0  0  0  0  0  0  0  0  0  0  0  0
    1.6293   -1.6581   28.2784 C   0  0  0  0  0  0  0  0  0  0  0  0
   -0.8061   -1.5754   28.3560 O   0  0  0  0  0  0  0  0  0  0  0  0
   -1.6657   -0.4604   28.0418 C   0  0  0  0  0  0  0  0  0  0  0  0
   -0.9584    0.7854   27.8789 O   0  0  0  0  0  0  0  0  0  0  0  0
    4.9246   -2.2776   24.3916 N   0  0  0  0  0  0  0  0  0  0  0  0
    4.9186   -1.9713   23.0508 C   0  0  0  0  0  0  0  0  0  0  0  0
    5.1052   -0.8650   22.3917 N   0  0  0  0  0  0  0  0  0  0  0  0
    6.2120   -0.8021   20.8298 C   0  0  0  0  0  0  0  0  0  0  0  0
    7.1867    0.3350   19.5660 C   0  0  0  0  0  0  0  0  0  0  0  0
    8.1998    1.3029   19.6491 C   0  0  0  0  0  0  0  0  0  0  0  0
    8.7249    1.6953   18.4341 N   0  0  0  0  0  0  0  0  0  0  0  0
    8.1092    0.9121   17.6118 C   0  0  0  0  0  0  0  0  0  0  0  0
    7.2239    0.0820   18.2177 O   0  0  0  0  0  0  0  0  0  0  0  0
    4.9353   -0.5267   21.3770 C   0  0  0  0  0  0  0  0  0  0  0  0
    5.4745   -2.6725   21.0859 S   0  0  0  0  0  0  0  0  0  0  0  0
    3.8719   -3.1145   26.5949 H   0  0  0  0  0  0  0  0  0  0  0  0
    5.5728   -2.7878   26.9843 H   0  0  0  0  0  0  0  0  0  0  0  0
    4.1976   -2.2623   28.9229 H   0  0  0  0  0  0  0  0  0  0  0  0
    4.9215   -0.7981   28.3094 H   0  0  0  0  0  0  0  0  0  0  0  0
    3.5861    1.0713   27.6513 H   0  0  0  0  0  0  0  0  0  0  0  0
    1.3728    2.1832   27.5642 H   0  0  0  0  0  0  0  0  0  0  0  0
    1.6592   -2.7228   28.4752 H   0  0  0  0  0  0  0  0  0  0  0  0
   -2.2216   -0.6815   27.1241 H   0  0  0  0  0  0  0  0  0  0  0  0
   -2.3691   -0.3427   28.8705 H   0  0  0  0  0  0  0  0  0  0  0  0
    5.0833   -3.2290   24.6942 H   0  0  0  0  0  0  0  0  0  0  0  0
    8.7283    1.6795   20.5034 H   0  0  0  0  0  0  0  0  0  0  0  0
    8.1830    0.8510   16.5351 H   0  0  0  0  0  0  0  0  0  0  0  0
    4.2707    0.4057   21.2669 H   0  0  0  0  0  0  0  0  0  0  0  0
  1  2  2  0
  2  3  1  0
  3  4  1  0
  4  5  1  0
  5  6  2  0
  6  7  1  0
  7  8  2  0
  8  9  1  0
  9 10  2  0
  9 11  1  0
 11 12  1  0
 12 13  1  0
  2 14  1  0
 14 15  1  0
 15 16  2  0
 16 17  1  0
 17 18  1  0
 18 19  2  0
 19 20  1  0
 20 21  2  0
 21 22  1  0
 17 23  2  0
 23 24  1  0
 10  5  1  0
 24 15  1  0
 13  8  1  0
 22 18  1  0
  3 25  1  0
  3 26  1  0
  4 27  1  0
  4 28  1  0
  6 29  1  0
  7 30  1  0
 10 31  1  0
 12 32  1  0
 12 33  1  0
 14 34  1  0
 19 35  1  0
 21 36  1  0
 23 37  1  0
M  END
>  <Energy>  (675) 
548.54020979125812

>  <compound_id>  (675) 
16450

>  <target_id>  (675) 
1

>  <reference_id>  (675) 
13

>  <inspiration_ids>  (675) 
[13, 60]

>  <energy_score>  (675) 
473.6558227424493

>  <distance_score>  (675) 
5.898860756801199

>  <path>  (675) 
/opt/xchem-fragalysis-2/maxwin/BulkDock/SCRATCH/511025/C16450-P13/C16450-P13.minimised.mol

>  <scratch_subdir>  (675) 
/opt/xchem-fragalysis-2/maxwin/BulkDock/SCRATCH/511025/C16450-P13

>  <fragmenstein_runtime>  (675) 
11.749334335327148

>  <fragmenstein_outcome>  (675) 
too moved

>  <fragmenstein_mode>  (675) 
expansion

>  <fragmenstein_error>  (675) 


$$$$
C16450-P60
     RDKit          3D

 37 40  0  0  0  0  0  0  0  0999 V2000
    1.5931    1.1349   31.0059 O   0  0  0  0  0  0  0  0  0  0  0  0
    1.8602    0.0845   30.5694 C   0  0  0  0  0  0  0  0  0  0  0  0
    0.8990   -1.1116   30.6300 C   0  0  0  0  0  0  0  0  0  0  0  0
    0.3347   -1.5282   29.2388 C   0  0  0  0  0  0  0  0  0  0  0  0
   -0.1534   -0.3701   28.3884 C   0  0  0  0  0  0  0  0  0  0  0  0
    0.7936    0.4946   27.7991 C   0  0  0  0  0  0  0  0  0  0  0  0
    0.4421    1.6802   27.1584 C   0  0  0  0  0  0  0  0  0  0  0  0
   -0.8901    1.9106   26.9765 C   0  0  0  0  0  0  0  0  0  0  0  0
   -1.8355    1.0198   27.4207 C   0  0  0  0  0  0  0  0  0  0  0  0
   -1.5081   -0.1109   28.1564 C   0  0  0  0  0  0  0  0  0  0  0  0
   -3.0756    1.3863   27.0025 O   0  0  0  0  0  0  0  0  0  0  0  0
   -2.8223    2.6948   26.4535 C   0  0  0  0  0  0  0  0  0  0  0  0
   -1.4172    2.9472   26.2762 O   0  0  0  0  0  0  0  0  0  0  0  0
    3.1016   -0.3839   29.7628 N   0  0  0  0  0  0  0  0  0  0  0  0
    4.1565    0.3228   29.2763 C   0  0  0  0  0  0  0  0  0  0  0  0
    5.0042   -0.2539   28.4635 N   0  0  0  0  0  0  0  0  0  0  0  0
    4.8358    0.3814   27.2329 C   0  0  0  0  0  0  0  0  0  0  0  0
    4.9440   -0.4641   25.9933 C   0  0  0  0  0  0  0  0  0  0  0  0
    5.6258   -1.6289   25.9988 C   0  0  0  0  0  0  0  0  0  0  0  0
    5.6413   -2.1361   24.7283 N   0  0  0  0  0  0  0  0  0  0  0  0
    4.9065   -1.3428   24.0526 C   0  0  0  0  0  0  0  0  0  0  0  0
    4.5403   -0.2388   24.7385 O   0  0  0  0  0  0  0  0  0  0  0  0
    4.4044    1.6890   27.3396 C   0  0  0  0  0  0  0  0  0  0  0  0
    4.0068    2.0069   29.0085 S   0  0  0  0  0  0  0  0  0  0  0  0
    0.0649   -0.8226   31.2817 H   0  0  0  0  0  0  0  0  0  0  0  0
    1.4006   -1.9600   31.1082 H   0  0  0  0  0  0  0  0  0  0  0  0
   -0.4831   -2.2431   29.3927 H   0  0  0  0  0  0  0  0  0  0  0  0
    1.1013   -2.0711   28.6714 H   0  0  0  0  0  0  0  0  0  0  0  0
    1.8415    0.2318   27.8021 H   0  0  0  0  0  0  0  0  0  0  0  0
    1.1907    2.3486   26.7503 H   0  0  0  0  0  0  0  0  0  0  0  0
   -2.2826   -0.7777   28.5139 H   0  0  0  0  0  0  0  0  0  0  0  0
   -3.3172    2.7727   25.4811 H   0  0  0  0  0  0  0  0  0  0  0  0
   -3.2341    3.4607   27.1176 H   0  0  0  0  0  0  0  0  0  0  0  0
    3.0501   -1.3805   29.6125 H   0  0  0  0  0  0  0  0  0  0  0  0
    6.1839   -2.0322   26.8341 H   0  0  0  0  0  0  0  0  0  0  0  0
    4.7202   -1.4308   23.0092 H   0  0  0  0  0  0  0  0  0  0  0  0
    4.2275    2.4305   26.5767 H   0  0  0  0  0  0  0  0  0  0  0  0
  1  2  2  0
  2  3  1  0
  3  4  1  0
  4  5  1  0
  5  6  2  0
  6  7  1  0
  7  8  2  0
  8  9  1  0
  9 10  2  0
  9 11  1  0
 11 12  1  0
 12 13  1  0
  2 14  1  0
 14 15  1  0
 15 16  2  0
 16 17  1  0
 17 18  1  0
 18 19  2  0
 19 20  1  0
 20 21  2  0
 21 22  1  0
 17 23  2  0
 23 24  1  0
 10  5  1  0
 24 15  1  0
 13  8  1  0
 22 18  1  0
  3 25  1  0
  3 26  1  0
  4 27  1  0
  4 28  1  0
  6 29  1  0
  7 30  1  0
 10 31  1  0
 12 32  1  0
 12 33  1  0
 14 34  1  0
 19 35  1  0
 21 36  1  0
 23 37  1  0
M  END
>  <Energy>  (676) 
52.050997374035106

>  <compound_id>  (676) 
16450

>  <target_id>  (676) 
1

>  <reference_id>  (676) 
60

>  <inspiration_ids>  (676) 
[13, 60]

>  <energy_score>  (676) 
-21.85677619908205

>  <distance_score>  (676) 
7.257344944034775

>  <path>  (676) 
/opt/xchem-fragalysis-2/maxwin/BulkDock/SCRATCH/511025/C16450-P60/C16450-P60.minimised.mol

>  <scratch_subdir>  (676) 
/opt/xchem-fragalysis-2/maxwin/BulkDock/SCRATCH/511025/C16450-P60

>  <fragmenstein_runtime>  (676) 
9.1823091506958

>  <fragmenstein_outcome>  (676) 
too moved

>  <fragmenstein_mode>  (676) 
expansion

>  <fragmenstein_error>  (676) 


$$$$
C22669-P13
     RDKit          3D

 40 43  0  0  0  0  0  0  0  0999 V2000
    4.0146   -0.8574   27.4096 O   0  0  0  0  0  0  0  0  0  0  0  0
    3.9092    0.2435   26.9421 C   0  0  0  0  0  0  0  0  0  0  0  0
    3.3186    1.3357   27.8239 C   0  0  0  0  0  0  0  0  0  0  0  0
    2.1086    0.7946   28.6205 C   0  0  0  0  0  0  0  0  0  0  0  0
    0.8320    1.5081   28.2420 C   0  0  0  0  0  0  0  0  0  0  0  0
    0.7010    2.8821   28.5455 C   0  0  0  0  0  0  0  0  0  0  0  0
   -0.4172    3.6037   28.1337 C   0  0  0  0  0  0  0  0  0  0  0  0
   -1.3908    2.9291   27.4358 C   0  0  0  0  0  0  0  0  0  0  0  0
   -1.2948    1.5866   27.1634 C   0  0  0  0  0  0  0  0  0  0  0  0
   -0.2017    0.8436   27.5617 C   0  0  0  0  0  0  0  0  0  0  0  0
   -2.3608    1.1318   26.4512 O   0  0  0  0  0  0  0  0  0  0  0  0
   -3.1360    2.3444   26.3137 C   0  0  0  0  0  0  0  0  0  0  0  0
   -2.5228    3.4855   26.9378 O   0  0  0  0  0  0  0  0  0  0  0  0
    4.1962    0.7372   25.6155 N   0  0  0  0  0  0  0  0  0  0  0  0
    4.5819    0.0862   24.4876 C   0  0  0  0  0  0  0  0  0  0  0  0
    4.8391    0.6023   23.2820 N   0  0  0  0  0  0  0  0  0  0  0  0
    4.9133   -0.4852   21.8080 C   0  0  0  0  0  0  0  0  0  0  0  0
    6.2306    0.2806   20.3889 C   0  0  0  0  0  0  0  0  0  0  0  0
    7.2670    1.6248   19.9303 C   0  0  0  0  0  0  0  0  0  0  0  0
    8.1739    1.9858   18.9045 C   0  0  0  0  0  0  0  0  0  0  0  0
    8.5259    0.9395   18.2031 C   0  0  0  0  0  0  0  0  0  0  0  0
    8.2714   -0.2043   18.8158 N   0  0  0  0  0  0  0  0  0  0  0  0
    7.1720   -0.3980   19.7259 C   0  0  0  0  0  0  0  0  0  0  0  0
    4.8141   -1.6670   22.8078 C   0  0  0  0  0  0  0  0  0  0  0  0
    4.5894   -1.5924   24.5369 S   0  0  0  0  0  0  0  0  0  0  0  0
    3.0619    2.2246   27.2392 H   0  0  0  0  0  0  0  0  0  0  0  0
    4.1133    1.6258   28.5225 H   0  0  0  0  0  0  0  0  0  0  0  0
    2.2791    0.9638   29.6917 H   0  0  0  0  0  0  0  0  0  0  0  0
    1.9682   -0.2860   28.5056 H   0  0  0  0  0  0  0  0  0  0  0  0
    1.4860    3.4019   29.0915 H   0  0  0  0  0  0  0  0  0  0  0  0
   -0.5241    4.6604   28.3535 H   0  0  0  0  0  0  0  0  0  0  0  0
   -0.1453   -0.2143   27.3240 H   0  0  0  0  0  0  0  0  0  0  0  0
   -3.2507    2.5643   25.2478 H   0  0  0  0  0  0  0  0  0  0  0  0
   -4.1287    2.1826   26.7459 H   0  0  0  0  0  0  0  0  0  0  0  0
    4.0675    1.7365   25.6005 H   0  0  0  0  0  0  0  0  0  0  0  0
    6.9785    2.6396   20.2823 H   0  0  0  0  0  0  0  0  0  0  0  0
    8.4723    3.0001   18.6920 H   0  0  0  0  0  0  0  0  0  0  0  0
    9.1482    0.9620   17.3229 H   0  0  0  0  0  0  0  0  0  0  0  0
    7.0576   -1.2313   20.3375 H   0  0  0  0  0  0  0  0  0  0  0  0
    5.2450   -2.5906   22.4834 H   0  0  0  0  0  0  0  0  0  0  0  0
  1  2  2  0
  2  3  1  0
  3  4  1  0
  4  5  1  0
  5  6  2  0
  6  7  1  0
  7  8  2  0
  8  9  1  0
  9 10  2  0
  9 11  1  0
 11 12  1  0
 12 13  1  0
  2 14  1  0
 14 15  1  0
 15 16  2  0
 16 17  1  0
 17 18  1  0
 18 19  2  0
 19 20  1  0
 20 21  2  0
 21 22  1  0
 22 23  2  0
 17 24  2  0
 24 25  1  0
 10  5  1  0
 25 15  1  0
 13  8  1  0
 23 18  1  0
  3 26  1  0
  3 27  1  0
  4 28  1  0
  4 29  1  0
  6 30  1  0
  7 31  1  0
 10 32  1  0
 12 33  1  0
 12 34  1  0
 14 35  1  0
 19 36  1  0
 20 37  1  0
 21 38  1  0
 23 39  1  0
 24 40  1  0
M  END
>  <Energy>  (677) 
398.47645261913488

>  <compound_id>  (677) 
22669

>  <target_id>  (677) 
1

>  <reference_id>  (677) 
13

>  <inspiration_ids>  (677) 
[13, 60]

>  <energy_score>  (677) 
284.04754442928356

>  <distance_score>  (677) 
5.4481110453437624

>  <path>  (677) 
/opt/xchem-fragalysis-2/maxwin/BulkDock/SCRATCH/511025/C22669-P13/C22669-P13.minimised.mol

>  <scratch_subdir>  (677) 
/opt/xchem-fragalysis-2/maxwin/BulkDock/SCRATCH/511025/C22669-P13

>  <fragmenstein_runtime>  (677) 
10.968863010406494

>  <fragmenstein_outcome>  (677) 
too moved

>  <fragmenstein_mode>  (677) 
expansion

>  <fragmenstein_error>  (677) 


$$$$
C22669-P60
     RDKit          3D

 40 43  0  0  0  0  0  0  0  0999 V2000
    3.6112   -1.9999   26.0526 O   0  0  0  0  0  0  0  0  0  0  0  0
    4.0202   -0.8750   26.1187 C   0  0  0  0  0  0  0  0  0  0  0  0
    4.1227   -0.1550   27.4710 C   0  0  0  0  0  0  0  0  0  0  0  0
    3.4737   -0.9124   28.6471 C   0  0  0  0  0  0  0  0  0  0  0  0
    2.0703   -0.4298   28.9190 C   0  0  0  0  0  0  0  0  0  0  0  0
    1.6724    0.0330   30.1895 C   0  0  0  0  0  0  0  0  0  0  0  0
    0.3844    0.5426   30.3939 C   0  0  0  0  0  0  0  0  0  0  0  0
   -0.4601    0.6029   29.3084 C   0  0  0  0  0  0  0  0  0  0  0  0
   -0.0674    0.1713   28.0701 C   0  0  0  0  0  0  0  0  0  0  0  0
    1.1569   -0.4054   27.8662 C   0  0  0  0  0  0  0  0  0  0  0  0
   -0.9928    0.4119   27.1101 O   0  0  0  0  0  0  0  0  0  0  0  0
   -2.0915    0.8307   27.9208 C   0  0  0  0  0  0  0  0  0  0  0  0
   -1.7350    1.0681   29.2982 O   0  0  0  0  0  0  0  0  0  0  0  0
    4.5746    0.0012   25.0904 N   0  0  0  0  0  0  0  0  0  0  0  0
    4.8964   -0.2548   23.6750 C   0  0  0  0  0  0  0  0  0  0  0  0
    4.9740    0.4199   22.1729 N   0  0  0  0  0  0  0  0  0  0  0  0
    6.1372   -0.4342   21.0999 C   0  0  0  0  0  0  0  0  0  0  0  0
    6.7111   -0.4190   19.3203 C   0  0  0  0  0  0  0  0  0  0  0  0
    6.1633   -1.0261   17.9530 C   0  0  0  0  0  0  0  0  0  0  0  0
    6.9850   -0.8460   16.4775 C   0  0  0  0  0  0  0  0  0  0  0  0
    8.2039   -0.2715   16.4587 C   0  0  0  0  0  0  0  0  0  0  0  0
    8.6687   -0.1710   17.6787 N   0  0  0  0  0  0  0  0  0  0  0  0
    7.8987   -0.5298   19.0097 C   0  0  0  0  0  0  0  0  0  0  0  0
    5.5848   -1.7837   21.7550 C   0  0  0  0  0  0  0  0  0  0  0  0
    4.9335   -1.8476   23.4953 S   0  0  0  0  0  0  0  0  0  0  0  0
    3.7263    0.8636   27.3831 H   0  0  0  0  0  0  0  0  0  0  0  0
    5.1985   -0.0748   27.6777 H   0  0  0  0  0  0  0  0  0  0  0  0
    3.4626   -1.9977   28.4969 H   0  0  0  0  0  0  0  0  0  0  0  0
    4.0832   -0.7283   29.5410 H   0  0  0  0  0  0  0  0  0  0  0  0
    2.3704    0.0059   31.0235 H   0  0  0  0  0  0  0  0  0  0  0  0
    0.0698    0.8943   31.3689 H   0  0  0  0  0  0  0  0  0  0  0  0
    1.4229   -0.8193   26.9047 H   0  0  0  0  0  0  0  0  0  0  0  0
   -2.5353    1.7385   27.4989 H   0  0  0  0  0  0  0  0  0  0  0  0
   -2.8095    0.0098   27.8868 H   0  0  0  0  0  0  0  0  0  0  0  0
    4.7360    0.8922   25.4797 H   0  0  0  0  0  0  0  0  0  0  0  0
    5.2006   -1.5427   17.8831 H   0  0  0  0  0  0  0  0  0  0  0  0
    6.7558   -1.4575   15.6000 H   0  0  0  0  0  0  0  0  0  0  0  0
    8.8605   -0.1357   15.6148 H   0  0  0  0  0  0  0  0  0  0  0  0
    8.4679   -0.7069   19.9010 H   0  0  0  0  0  0  0  0  0  0  0  0
    5.6563   -2.7282   21.2291 H   0  0  0  0  0  0  0  0  0  0  0  0
  1  2  2  0
  2  3  1  0
  3  4  1  0
  4  5  1  0
  5  6  2  0
  6  7  1  0
  7  8  2  0
  8  9  1  0
  9 10  2  0
  9 11  1  0
 11 12  1  0
 12 13  1  0
  2 14  1  0
 14 15  1  0
 15 16  2  0
 16 17  1  0
 17 18  1  0
 18 19  2  0
 19 20  1  0
 20 21  2  0
 21 22  1  0
 22 23  2  0
 17 24  2  0
 24 25  1  0
 10  5  1  0
 25 15  1  0
 13  8  1  0
 23 18  1  0
  3 26  1  0
  3 27  1  0
  4 28  1  0
  4 29  1  0
  6 30  1  0
  7 31  1  0
 10 32  1  0
 12 33  1  0
 12 34  1  0
 14 35  1  0
 19 36  1  0
 20 37  1  0
 21 38  1  0
 23 39  1  0
 24 40  1  0
M  END
>  <Energy>  (678) 
362.90790582281852

>  <compound_id>  (678) 
22669

>  <target_id>  (678) 
1

>  <reference_id>  (678) 
60

>  <inspiration_ids>  (678) 
[13, 60]

>  <energy_score>  (678) 
248.47899763297698

>  <distance_score>  (678) 
5.245998274974944

>  <path>  (678) 
/opt/xchem-fragalysis-2/maxwin/BulkDock/SCRATCH/511025/C22669-P60/C22669-P60.minimised.mol

>  <scratch_subdir>  (678) 
/opt/xchem-fragalysis-2/maxwin/BulkDock/SCRATCH/511025/C22669-P60

>  <fragmenstein_runtime>  (678) 
9.593618631362915

>  <fragmenstein_outcome>  (678) 
too moved

>  <fragmenstein_mode>  (678) 
expansion

>  <fragmenstein_error>  (678) 


$$$$
C62864-P13
     RDKit          3D

 41 44  0  0  0  0  0  0  0  0999 V2000
    5.3671    1.0842   26.7722 O   0  0  0  0  0  0  0  0  0  0  0  0
    5.2401   -0.1066   26.7686 C   0  0  0  0  0  0  0  0  0  0  0  0
    5.3558   -0.8674   28.0852 C   0  0  0  0  0  0  0  0  0  0  0  0
    3.9668   -1.3914   28.5582 C   0  0  0  0  0  0  0  0  0  0  0  0
    2.7698   -0.4516   28.4974 C   0  0  0  0  0  0  0  0  0  0  0  0
    2.8994    0.9398   28.7030 C   0  0  0  0  0  0  0  0  0  0  0  0
    1.8063    1.8065   28.5648 C   0  0  0  0  0  0  0  0  0  0  0  0
    0.5835    1.2600   28.2542 C   0  0  0  0  0  0  0  0  0  0  0  0
    0.4216   -0.0949   28.1169 C   0  0  0  0  0  0  0  0  0  0  0  0
    1.4850   -0.9720   28.2400 C   0  0  0  0  0  0  0  0  0  0  0  0
   -0.8669   -0.4318   27.8415 O   0  0  0  0  0  0  0  0  0  0  0  0
   -1.4793    0.8711   27.7489 C   0  0  0  0  0  0  0  0  0  0  0  0
   -0.5695    1.9489   28.0502 O   0  0  0  0  0  0  0  0  0  0  0  0
    4.8866   -1.0086   25.7100 N   0  0  0  0  0  0  0  0  0  0  0  0
    4.4760   -0.7545   24.3405 C   0  0  0  0  0  0  0  0  0  0  0  0
    4.6996   -1.7359   23.2498 C   0  0  0  0  0  0  0  0  0  0  0  0
    5.0022   -0.6992   21.7466 C   0  0  0  0  0  0  0  0  0  0  0  0
    6.5983   -0.2107   20.3251 C   0  0  0  0  0  0  0  0  0  0  0  0
    6.7156    0.4728   19.0159 C   0  0  0  0  0  0  0  0  0  0  0  0
    7.9164    1.0828   18.8539 C   0  0  0  0  0  0  0  0  0  0  0  0
    8.6268    0.2238   19.5664 O   0  0  0  0  0  0  0  0  0  0  0  0
    7.7978   -0.7290   20.0912 N   0  0  0  0  0  0  0  0  0  0  0  0
    4.9825    0.3530   23.4918 C   0  0  0  0  0  0  0  0  0  0  0  0
    5.7714   -0.1866   28.8378 H   0  0  0  0  0  0  0  0  0  0  0  0
    6.0644   -1.6963   27.9794 H   0  0  0  0  0  0  0  0  0  0  0  0
    3.7289   -2.2800   27.9584 H   0  0  0  0  0  0  0  0  0  0  0  0
    4.0660   -1.7382   29.5944 H   0  0  0  0  0  0  0  0  0  0  0  0
    3.8688    1.3780   28.9352 H   0  0  0  0  0  0  0  0  0  0  0  0
    1.9250    2.8781   28.6820 H   0  0  0  0  0  0  0  0  0  0  0  0
    1.3177   -2.0351   28.1066 H   0  0  0  0  0  0  0  0  0  0  0  0
   -1.8729    1.0084   26.7351 H   0  0  0  0  0  0  0  0  0  0  0  0
   -2.3073    0.9152   28.4615 H   0  0  0  0  0  0  0  0  0  0  0  0
    4.9563   -1.9602   26.0503 H   0  0  0  0  0  0  0  0  0  0  0  0
    3.4317   -0.5494   24.5861 H   0  0  0  0  0  0  0  0  0  0  0  0
    5.4601   -2.4570   23.5593 H   0  0  0  0  0  0  0  0  0  0  0  0
    3.6924   -2.1656   23.2019 H   0  0  0  0  0  0  0  0  0  0  0  0
    5.3118   -1.6709   21.2118 H   0  0  0  0  0  0  0  0  0  0  0  0
    6.3925   -0.0913   18.1462 H   0  0  0  0  0  0  0  0  0  0  0  0
    8.4277    1.6658   18.1040 H   0  0  0  0  0  0  0  0  0  0  0  0
    4.5173    1.1071   24.2013 H   0  0  0  0  0  0  0  0  0  0  0  0
    4.5753    1.2908   22.9815 H   0  0  0  0  0  0  0  0  0  0  0  0
  1  2  2  0
  2  3  1  0
  3  4  1  0
  4  5  1  0
  5  6  2  0
  6  7  1  0
  7  8  2  0
  8  9  1  0
  9 10  2  0
  9 11  1  0
 11 12  1  0
 12 13  1  0
  2 14  1  0
 14 15  1  0
 15 16  1  0
 16 17  1  0
 17 18  1  0
 18 19  1  0
 19 20  2  0
 20 21  1  0
 21 22  1  0
 17 23  1  0
 10  5  1  0
 23 15  1  0
 13  8  1  0
 22 18  2  0
  3 24  1  0
  3 25  1  0
  4 26  1  0
  4 27  1  0
  6 28  1  0
  7 29  1  0
 10 30  1  0
 12 31  1  0
 12 32  1  0
 14 33  1  0
 15 34  1  0
 16 35  1  0
 16 36  1  0
 17 37  1  0
 19 38  1  0
 20 39  1  0
 23 40  1  0
 23 41  1  0
M  END
>  <Energy>  (679) 
388.06423801448955

>  <compound_id>  (679) 
62864

>  <target_id>  (679) 
1

>  <reference_id>  (679) 
13

>  <inspiration_ids>  (679) 
[13, 60]

>  <energy_score>  (679) 
341.55009345028486

>  <distance_score>  (679) 
5.656134918520212

>  <path>  (679) 
/opt/xchem-fragalysis-2/maxwin/BulkDock/SCRATCH/511025/C62864-P13/C62864-P13.minimised.mol

>  <scratch_subdir>  (679) 
/opt/xchem-fragalysis-2/maxwin/BulkDock/SCRATCH/511025/C62864-P13

>  <fragmenstein_runtime>  (679) 
9.15188455581665

>  <fragmenstein_outcome>  (679) 
too moved

>  <fragmenstein_mode>  (679) 
expansion

>  <fragmenstein_error>  (679) 


$$$$
C62864-P60
     RDKit          3D

 41 44  0  0  0  0  0  0  0  0999 V2000
    4.6095   -0.0420   26.0308 O   0  0  0  0  0  0  0  0  0  0  0  0
    4.0930   -1.0457   25.6098 C   0  0  0  0  0  0  0  0  0  0  0  0
    3.2690   -1.8573   26.6153 C   0  0  0  0  0  0  0  0  0  0  0  0
    2.8896   -1.1507   27.9314 C   0  0  0  0  0  0  0  0  0  0  0  0
    1.8235   -0.0798   27.8275 C   0  0  0  0  0  0  0  0  0  0  0  0
    2.2102    1.2630   27.6129 C   0  0  0  0  0  0  0  0  0  0  0  0
    1.2626    2.2726   27.4268 C   0  0  0  0  0  0  0  0  0  0  0  0
   -0.0647    1.9147   27.4557 C   0  0  0  0  0  0  0  0  0  0  0  0
   -0.4616    0.6213   27.6995 C   0  0  0  0  0  0  0  0  0  0  0  0
    0.4551   -0.3948   27.9046 C   0  0  0  0  0  0  0  0  0  0  0  0
   -1.8153    0.4834   27.6431 O   0  0  0  0  0  0  0  0  0  0  0  0
   -2.2152    1.8332   27.3125 C   0  0  0  0  0  0  0  0  0  0  0  0
   -1.1092    2.7471   27.2096 O   0  0  0  0  0  0  0  0  0  0  0  0
    4.1946   -1.7000   24.2863 N   0  0  0  0  0  0  0  0  0  0  0  0
    5.0666   -1.3657   23.0676 C   0  0  0  0  0  0  0  0  0  0  0  0
    5.6314   -1.9895   21.7648 C   0  0  0  0  0  0  0  0  0  0  0  0
    6.6434   -0.6602   20.8282 C   0  0  0  0  0  0  0  0  0  0  0  0
    6.9321   -0.6152   18.8651 C   0  0  0  0  0  0  0  0  0  0  0  0
    6.0715   -1.1251   17.6237 C   0  0  0  0  0  0  0  0  0  0  0  0
    6.9708   -0.8457   16.4347 C   0  0  0  0  0  0  0  0  0  0  0  0
    8.0867   -0.2359   16.8866 O   0  0  0  0  0  0  0  0  0  0  0  0
    8.0904   -0.2838   18.2373 N   0  0  0  0  0  0  0  0  0  0  0  0
    5.1096    0.1946   21.7822 C   0  0  0  0  0  0  0  0  0  0  0  0
    3.8958   -2.7036   26.8982 H   0  0  0  0  0  0  0  0  0  0  0  0
    2.3871   -2.2631   26.1691 H   0  0  0  0  0  0  0  0  0  0  0  0
    3.7857   -0.7211   28.3979 H   0  0  0  0  0  0  0  0  0  0  0  0
    2.5341   -1.9105   28.6404 H   0  0  0  0  0  0  0  0  0  0  0  0
    3.2682    1.5183   27.5531 H   0  0  0  0  0  0  0  0  0  0  0  0
    1.5652    3.2950   27.2313 H   0  0  0  0  0  0  0  0  0  0  0  0
    0.1195   -1.4142   28.0607 H   0  0  0  0  0  0  0  0  0  0  0  0
   -2.7517    1.8154   26.3569 H   0  0  0  0  0  0  0  0  0  0  0  0
   -2.8909    2.1948   28.0883 H   0  0  0  0  0  0  0  0  0  0  0  0
    3.5572   -2.4853   24.2551 H   0  0  0  0  0  0  0  0  0  0  0  0
    5.8076   -1.4724   23.8226 H   0  0  0  0  0  0  0  0  0  0  0  0
    4.8189   -1.4575   21.6581 H   0  0  0  0  0  0  0  0  0  0  0  0
    5.5214   -2.9154   21.2365 H   0  0  0  0  0  0  0  0  0  0  0  0
    7.7100   -0.6464   20.9289 H   0  0  0  0  0  0  0  0  0  0  0  0
    5.1000   -1.6011   17.6936 H   0  0  0  0  0  0  0  0  0  0  0  0
    7.0034   -1.1389   15.3902 H   0  0  0  0  0  0  0  0  0  0  0  0
    4.1549    0.6536   21.6409 H   0  0  0  0  0  0  0  0  0  0  0  0
    5.8930    0.9210   21.9728 H   0  0  0  0  0  0  0  0  0  0  0  0
  1  2  2  0
  2  3  1  0
  3  4  1  0
  4  5  1  0
  5  6  2  0
  6  7  1  0
  7  8  2  0
  8  9  1  0
  9 10  2  0
  9 11  1  0
 11 12  1  0
 12 13  1  0
  2 14  1  0
 14 15  1  0
 15 16  1  0
 16 17  1  0
 17 18  1  0
 18 19  1  0
 19 20  2  0
 20 21  1  0
 21 22  1  0
 17 23  1  0
 10  5  1  0
 23 15  1  0
 13  8  1  0
 22 18  2  0
  3 24  1  0
  3 25  1  0
  4 26  1  0
  4 27  1  0
  6 28  1  0
  7 29  1  0
 10 30  1  0
 12 31  1  0
 12 32  1  0
 14 33  1  0
 15 34  1  0
 16 35  1  0
 16 36  1  0
 17 37  1  0
 19 38  1  0
 20 39  1  0
 23 40  1  0
 23 41  1  0
M  END
>  <Energy>  (680) 
383.79752039654858

>  <compound_id>  (680) 
62864

>  <target_id>  (680) 
1

>  <reference_id>  (680) 
60

>  <inspiration_ids>  (680) 
[13, 60]

>  <energy_score>  (680) 
337.28337583235003

>  <distance_score>  (680) 
5.2486664061557

>  <path>  (680) 
/opt/xchem-fragalysis-2/maxwin/BulkDock/SCRATCH/511025/C62864-P60/C62864-P60.minimised.mol

>  <scratch_subdir>  (680) 
/opt/xchem-fragalysis-2/maxwin/BulkDock/SCRATCH/511025/C62864-P60

>  <fragmenstein_runtime>  (680) 
12.24270248413086

>  <fragmenstein_outcome>  (680) 
too moved

>  <fragmenstein_mode>  (680) 
expansion

>  <fragmenstein_error>  (680) 


$$$$
C62865-P13
     RDKit          3D

 42 45  0  0  0  0  0  0  0  0999 V2000
    3.4343    1.3542   26.2146 O   0  0  0  0  0  0  0  0  0  0  0  0
    3.3861    0.1745   26.4015 C   0  0  0  0  0  0  0  0  0  0  0  0
    2.7290   -0.4517   27.6483 C   0  0  0  0  0  0  0  0  0  0  0  0
    2.1139    0.5124   28.6523 C   0  0  0  0  0  0  0  0  0  0  0  0
    0.9071    1.2833   28.1769 C   0  0  0  0  0  0  0  0  0  0  0  0
    0.9225    2.6920   28.2991 C   0  0  0  0  0  0  0  0  0  0  0  0
   -0.1585    3.4680   27.8827 C   0  0  0  0  0  0  0  0  0  0  0  0
   -1.2378    2.8154   27.3387 C   0  0  0  0  0  0  0  0  0  0  0  0
   -1.2762    1.4474   27.2228 C   0  0  0  0  0  0  0  0  0  0  0  0
   -0.2309    0.6505   27.6484 C   0  0  0  0  0  0  0  0  0  0  0  0
   -2.4248    1.0169   26.6351 O   0  0  0  0  0  0  0  0  0  0  0  0
   -3.0912    2.2748   26.3823 C   0  0  0  0  0  0  0  0  0  0  0  0
   -2.3547    3.4156   26.8559 O   0  0  0  0  0  0  0  0  0  0  0  0
    3.8807   -0.9310   25.6036 N   0  0  0  0  0  0  0  0  0  0  0  0
    4.6737   -0.9481   24.3772 C   0  0  0  0  0  0  0  0  0  0  0  0
    4.9485    0.2404   23.5341 C   0  0  0  0  0  0  0  0  0  0  0  0
    5.0386   -0.6191   21.6566 C   0  0  0  0  0  0  0  0  0  0  0  0
    6.4674    0.1400   20.2897 N   0  0  0  0  0  0  0  0  0  0  0  0
    7.3698    1.5944   19.9269 C   0  0  0  0  0  0  0  0  0  0  0  0
    8.1566    1.5512   18.8485 C   0  0  0  0  0  0  0  0  0  0  0  0
    7.9483    0.2619   18.5763 C   0  0  0  0  0  0  0  0  0  0  0  0
    7.5585   -0.5354   19.6128 N   0  0  0  0  0  0  0  0  0  0  0  0
    4.6709   -1.7533   23.1385 C   0  0  0  0  0  0  0  0  0  0  0  0
    3.5161   -1.0121   28.1709 H   0  0  0  0  0  0  0  0  0  0  0  0
    1.9753   -1.1773   27.3305 H   0  0  0  0  0  0  0  0  0  0  0  0
    2.8941    1.2102   28.9829 H   0  0  0  0  0  0  0  0  0  0  0  0
    1.8125   -0.0482   29.5466 H   0  0  0  0  0  0  0  0  0  0  0  0
    1.7950    3.1973   28.7095 H   0  0  0  0  0  0  0  0  0  0  0  0
   -0.1493    4.5483   27.9738 H   0  0  0  0  0  0  0  0  0  0  0  0
   -0.3005   -0.4271   27.5464 H   0  0  0  0  0  0  0  0  0  0  0  0
   -4.0791    2.2551   26.8514 H   0  0  0  0  0  0  0  0  0  0  0  0
   -3.2233    2.3862   25.3022 H   0  0  0  0  0  0  0  0  0  0  0  0
    3.7371   -1.7968   26.1122 H   0  0  0  0  0  0  0  0  0  0  0  0
    5.5246   -1.3729   24.9570 H   0  0  0  0  0  0  0  0  0  0  0  0
    5.6717    0.3798   24.3457 H   0  0  0  0  0  0  0  0  0  0  0  0
    4.4162    1.2125   23.6403 H   0  0  0  0  0  0  0  0  0  0  0  0
    5.3508   -1.5827   21.1386 H   0  0  0  0  0  0  0  0  0  0  0  0
    6.9935    2.5263   20.3049 H   0  0  0  0  0  0  0  0  0  0  0  0
    8.5875    2.3617   18.2811 H   0  0  0  0  0  0  0  0  0  0  0  0
    8.2729   -0.0772   17.6003 H   0  0  0  0  0  0  0  0  0  0  0  0
    3.6418   -2.1327   23.1356 H   0  0  0  0  0  0  0  0  0  0  0  0
    5.4449   -2.5119   23.2858 H   0  0  0  0  0  0  0  0  0  0  0  0
  1  2  2  0
  2  3  1  0
  3  4  1  0
  4  5  1  0
  5  6  2  0
  6  7  1  0
  7  8  2  0
  8  9  1  0
  9 10  2  0
  9 11  1  0
 11 12  1  0
 12 13  1  0
  2 14  1  0
 14 15  1  0
 15 16  1  0
 16 17  1  0
 17 18  1  0
 18 19  1  0
 19 20  2  0
 20 21  1  0
 21 22  2  0
 17 23  1  0
 10  5  1  0
 23 15  1  0
 13  8  1  0
 22 18  1  0
  3 24  1  0
  3 25  1  0
  4 26  1  0
  4 27  1  0
  6 28  1  0
  7 29  1  0
 10 30  1  0
 12 31  1  0
 12 32  1  0
 14 33  1  0
 15 34  1  0
 16 35  1  0
 16 36  1  0
 17 37  1  0
 19 38  1  0
 20 39  1  0
 21 40  1  0
 23 41  1  0
 23 42  1  0
M  END
>  <Energy>  (681) 
452.37251909653304

>  <compound_id>  (681) 
62865

>  <target_id>  (681) 
1

>  <reference_id>  (681) 
13

>  <inspiration_ids>  (681) 
[13, 60]

>  <energy_score>  (681) 
401.84587842781576

>  <distance_score>  (681) 
5.646899861957356

>  <path>  (681) 
/opt/xchem-fragalysis-2/maxwin/BulkDock/SCRATCH/511025/C62865-P13/C62865-P13.minimised.mol

>  <scratch_subdir>  (681) 
/opt/xchem-fragalysis-2/maxwin/BulkDock/SCRATCH/511025/C62865-P13

>  <fragmenstein_runtime>  (681) 
13.402388572692871

>  <fragmenstein_outcome>  (681) 
too moved

>  <fragmenstein_mode>  (681) 
expansion

>  <fragmenstein_error>  (681) 


$$$$
C62865-P60
     RDKit          3D

 42 45  0  0  0  0  0  0  0  0999 V2000
    5.1839   -1.0403   25.9551 O   0  0  0  0  0  0  0  0  0  0  0  0
    4.3004   -1.5892   25.3514 C   0  0  0  0  0  0  0  0  0  0  0  0
    3.0675   -1.8920   26.1513 C   0  0  0  0  0  0  0  0  0  0  0  0
    3.0415   -1.4675   27.6354 C   0  0  0  0  0  0  0  0  0  0  0  0
    1.7003   -0.8387   27.9951 C   0  0  0  0  0  0  0  0  0  0  0  0
    0.6501   -1.6143   28.5279 C   0  0  0  0  0  0  0  0  0  0  0  0
   -0.6388   -1.0798   28.6686 C   0  0  0  0  0  0  0  0  0  0  0  0
   -0.8551    0.2121   28.2396 C   0  0  0  0  0  0  0  0  0  0  0  0
    0.1649    0.9830   27.7445 C   0  0  0  0  0  0  0  0  0  0  0  0
    1.4558    0.5041   27.6512 C   0  0  0  0  0  0  0  0  0  0  0  0
   -0.2713    2.1903   27.2917 O   0  0  0  0  0  0  0  0  0  0  0  0
   -1.6960    2.0468   27.4644 C   0  0  0  0  0  0  0  0  0  0  0  0
   -2.0531    0.8535   28.1930 O   0  0  0  0  0  0  0  0  0  0  0  0
    4.1801   -1.9392   23.8986 N   0  0  0  0  0  0  0  0  0  0  0  0
    5.1344   -1.6040   22.6654 C   0  0  0  0  0  0  0  0  0  0  0  0
    5.2082   -0.0716   21.5626 C   0  0  0  0  0  0  0  0  0  0  0  0
    6.7965   -0.7675   20.5903 C   0  0  0  0  0  0  0  0  0  0  0  0
    6.9394   -0.6032   18.7013 N   0  0  0  0  0  0  0  0  0  0  0  0
    8.0540    0.0277   17.6282 C   0  0  0  0  0  0  0  0  0  0  0  0
    7.9330   -0.5238   16.3626 C   0  0  0  0  0  0  0  0  0  0  0  0
    6.5854   -1.0422   16.3468 C   0  0  0  0  0  0  0  0  0  0  0  0
    5.9394   -1.2094   17.5834 N   0  0  0  0  0  0  0  0  0  0  0  0
    5.7506   -2.3559   21.2476 C   0  0  0  0  0  0  0  0  0  0  0  0
    2.8479   -2.9530   26.0702 H   0  0  0  0  0  0  0  0  0  0  0  0
    2.3476   -1.2694   25.6527 H   0  0  0  0  0  0  0  0  0  0  0  0
    3.2255   -2.3403   28.2734 H   0  0  0  0  0  0  0  0  0  0  0  0
    3.8299   -0.7467   27.8802 H   0  0  0  0  0  0  0  0  0  0  0  0
    0.8217   -2.6576   28.7819 H   0  0  0  0  0  0  0  0  0  0  0  0
   -1.4575   -1.6889   29.0348 H   0  0  0  0  0  0  0  0  0  0  0  0
    2.2396    1.1200   27.2194 H   0  0  0  0  0  0  0  0  0  0  0  0
   -2.1670    2.0053   26.4743 H   0  0  0  0  0  0  0  0  0  0  0  0
   -2.0798    2.9254   27.9890 H   0  0  0  0  0  0  0  0  0  0  0  0
    3.2588   -2.3250   23.7236 H   0  0  0  0  0  0  0  0  0  0  0  0
    5.8001   -1.6805   23.4810 H   0  0  0  0  0  0  0  0  0  0  0  0
    5.7874    0.7887   21.8503 H   0  0  0  0  0  0  0  0  0  0  0  0
    4.2978    0.5076   21.6053 H   0  0  0  0  0  0  0  0  0  0  0  0
    7.8268   -0.6297   20.8132 H   0  0  0  0  0  0  0  0  0  0  0  0
    8.3125    1.0741   17.7553 H   0  0  0  0  0  0  0  0  0  0  0  0
    8.5629   -0.3294   15.5024 H   0  0  0  0  0  0  0  0  0  0  0  0
    6.0633   -1.4025   15.4648 H   0  0  0  0  0  0  0  0  0  0  0  0
    6.4501   -3.1094   21.0800 H   0  0  0  0  0  0  0  0  0  0  0  0
    5.1318   -2.9870   20.5874 H   0  0  0  0  0  0  0  0  0  0  0  0
  1  2  2  0
  2  3  1  0
  3  4  1  0
  4  5  1  0
  5  6  2  0
  6  7  1  0
  7  8  2  0
  8  9  1  0
  9 10  2  0
  9 11  1  0
 11 12  1  0
 12 13  1  0
  2 14  1  0
 14 15  1  0
 15 16  1  0
 16 17  1  0
 17 18  1  0
 18 19  1  0
 19 20  2  0
 20 21  1  0
 21 22  2  0
 17 23  1  0
 10  5  1  0
 23 15  1  0
 13  8  1  0
 22 18  1  0
  3 24  1  0
  3 25  1  0
  4 26  1  0
  4 27  1  0
  6 28  1  0
  7 29  1  0
 10 30  1  0
 12 31  1  0
 12 32  1  0
 14 33  1  0
 15 34  1  0
 16 35  1  0
 16 36  1  0
 17 37  1  0
 19 38  1  0
 20 39  1  0
 21 40  1  0
 23 41  1  0
 23 42  1  0
M  END
>  <Energy>  (682) 
358.74201187129796

>  <compound_id>  (682) 
62865

>  <target_id>  (682) 
1

>  <reference_id>  (682) 
60

>  <inspiration_ids>  (682) 
[13, 60]

>  <energy_score>  (682) 
308.2153712025908

>  <distance_score>  (682) 
5.790077001975774

>  <path>  (682) 
/opt/xchem-fragalysis-2/maxwin/BulkDock/SCRATCH/511025/C62865-P60/C62865-P60.minimised.mol

>  <scratch_subdir>  (682) 
/opt/xchem-fragalysis-2/maxwin/BulkDock/SCRATCH/511025/C62865-P60

>  <fragmenstein_runtime>  (682) 
13.95699167251587

>  <fragmenstein_outcome>  (682) 
too moved

>  <fragmenstein_mode>  (682) 
expansion

>  <fragmenstein_error>  (682) 


$$$$
C48737-P99
     RDKit          3D

 36 37  0  0  0  0  0  0  0  0999 V2000
  -12.3465  -20.1642   21.7511 C   0  0  0  0  0  0  0  0  0  0  0  0
  -12.3034  -18.8868   20.8544 C   0  0  0  0  0  0  0  0  0  0  0  0
  -12.7939  -19.2689   19.4471 C   0  0  0  0  0  0  0  0  0  0  0  0
  -13.2579  -17.8772   21.4803 C   0  0  0  0  0  0  0  0  0  0  0  0
  -14.3354  -17.5055   21.0383 O   0  0  0  0  0  0  0  0  0  0  0  0
  -12.8687  -17.4192   22.6967 O   0  0  0  0  0  0  0  0  0  0  0  0
  -10.9653  -18.2816   20.7543 N   0  0  0  0  0  0  0  0  0  0  0  0
   -9.8145  -18.7854   21.2825 C   0  0  0  0  0  0  0  0  0  0  0  0
   -8.8505  -17.8698   20.9685 C   0  0  0  0  0  0  0  0  0  0  0  0
   -9.4771  -16.7901   20.2271 C   0  0  0  0  0  0  0  0  0  0  0  0
   -8.5244  -15.7512   19.8295 N   0  0  0  0  0  0  0  0  0  0  0  0
   -8.7625  -14.0123   19.2902 C   0  0  0  0  0  0  0  0  0  0  0  0
   -9.8517  -13.4696   19.2919 O   0  0  0  0  0  0  0  0  0  0  0  0
   -7.4489  -12.8122   18.4762 C   0  0  0  0  0  0  0  0  0  0  0  0
   -6.0292  -12.6092   18.6226 O   0  0  0  0  0  0  0  0  0  0  0  0
   -7.7523  -11.8142   16.9859 C   0  0  0  0  0  0  0  0  0  0  0  0
   -6.7173  -10.5400   16.3704 C   0  0  0  0  0  0  0  0  0  0  0  0
   -7.5527  -10.0174   14.8103 N   0  0  0  0  0  0  0  0  0  0  0  0
   -8.5703  -11.0718   14.5258 C   0  0  0  0  0  0  0  0  0  0  0  0
   -8.6331  -12.0312   15.5121 N   0  0  0  0  0  0  0  0  0  0  0  0
  -10.7658  -17.1334   20.0297 N   0  0  0  0  0  0  0  0  0  0  0  0
  -11.9821  -19.9615   22.7646 H   0  0  0  0  0  0  0  0  0  0  0  0
  -13.3739  -20.5354   21.8470 H   0  0  0  0  0  0  0  0  0  0  0  0
  -11.7389  -20.9708   21.3253 H   0  0  0  0  0  0  0  0  0  0  0  0
  -12.1028  -19.9692   18.9639 H   0  0  0  0  0  0  0  0  0  0  0  0
  -12.8841  -18.3911   18.7962 H   0  0  0  0  0  0  0  0  0  0  0  0
  -13.7819  -19.7424   19.4853 H   0  0  0  0  0  0  0  0  0  0  0  0
  -13.5756  -16.7681   22.8973 H   0  0  0  0  0  0  0  0  0  0  0  0
   -9.7602  -19.7231   21.8157 H   0  0  0  0  0  0  0  0  0  0  0  0
   -7.8073  -17.9323   21.2427 H   0  0  0  0  0  0  0  0  0  0  0  0
   -7.6166  -15.9507   19.8346 H   0  0  0  0  0  0  0  0  0  0  0  0
   -7.7890  -11.9204   18.9367 H   0  0  0  0  0  0  0  0  0  0  0  0
   -5.6121  -12.7951   17.7682 H   0  0  0  0  0  0  0  0  0  0  0  0
   -5.6925  -10.2924   16.5398 H   0  0  0  0  0  0  0  0  0  0  0  0
   -7.0811   -9.6515   13.9992 H   0  0  0  0  0  0  0  0  0  0  0  0
   -9.0701  -11.0712   13.5682 H   0  0  0  0  0  0  0  0  0  0  0  0
  1  2  1  0
  2  3  1  0
  2  4  1  0
  4  5  2  0
  4  6  1  0
  2  7  1  0
  7  8  1  0
  8  9  2  0
  9 10  1  0
 10 11  1  0
 11 12  1  0
 12 13  2  0
 12 14  1  0
 14 15  1  0
 14 16  1  0
 16 17  2  0
 17 18  1  0
 18 19  1  0
 19 20  2  0
 10 21  2  0
 21  7  1  0
 20 16  1  0
  1 22  1  0
  1 23  1  0
  1 24  1  0
  3 25  1  0
  3 26  1  0
  3 27  1  0
  6 28  1  0
  8 29  1  0
  9 30  1  0
 11 31  1  0
 14 32  1  0
 15 33  1  0
 17 34  1  0
 18 35  1  0
 19 36  1  0
M  END
>  <Energy>  (683) 
364.1973950516105

>  <compound_id>  (683) 
48737

>  <target_id>  (683) 
1

>  <reference_id>  (683) 
99

>  <inspiration_ids>  (683) 
[99, 64]

>  <energy_score>  (683) 
312.52041569914957

>  <distance_score>  (683) 
12.816027195022258

>  <path>  (683) 
/opt/xchem-fragalysis-2/maxwin/BulkDock/SCRATCH/511025/C48737-P99/C48737-P99.minimised.mol

>  <scratch_subdir>  (683) 
/opt/xchem-fragalysis-2/maxwin/BulkDock/SCRATCH/511025/C48737-P99

>  <fragmenstein_runtime>  (683) 
24.36157488822937

>  <fragmenstein_outcome>  (683) 
too moved

>  <fragmenstein_mode>  (683) 
expansion

>  <fragmenstein_error>  (683) 


$$$$
C48737-P64
     RDKit          3D

 36 37  0  0  0  0  0  0  0  0999 V2000
  -10.2593  -20.4117   29.4477 C   0  0  0  0  0  0  0  0  0  0  0  0
   -9.0466  -19.1354   28.1937 C   0  0  0  0  0  0  0  0  0  0  0  0
   -9.7622  -20.9434   27.6972 C   0  0  0  0  0  0  0  0  0  0  0  0
   -7.4103  -18.8011   28.2943 C   0  0  0  0  0  0  0  0  0  0  0  0
   -6.5020  -19.3554   27.6896 O   0  0  0  0  0  0  0  0  0  0  0  0
   -7.1436  -17.7325   29.0779 O   0  0  0  0  0  0  0  0  0  0  0  0
   -9.3792  -17.5103   27.1833 N   0  0  0  0  0  0  0  0  0  0  0  0
  -10.2254  -16.3286   27.3541 C   0  0  0  0  0  0  0  0  0  0  0  0
  -10.2773  -15.3933   26.1924 C   0  0  0  0  0  0  0  0  0  0  0  0
   -9.4301  -15.6954   25.0126 C   0  0  0  0  0  0  0  0  0  0  0  0
   -9.1233  -15.2068   23.2832 N   0  0  0  0  0  0  0  0  0  0  0  0
   -9.3874  -13.5786   22.3838 C   0  0  0  0  0  0  0  0  0  0  0  0
   -9.9163  -12.5941   22.8703 O   0  0  0  0  0  0  0  0  0  0  0  0
   -8.6208  -13.6521   20.3782 C   0  0  0  0  0  0  0  0  0  0  0  0
   -7.2992  -13.2255   19.9382 O   0  0  0  0  0  0  0  0  0  0  0  0
   -8.9665  -12.8902   18.9403 C   0  0  0  0  0  0  0  0  0  0  0  0
   -8.0267  -12.7959   17.8675 C   0  0  0  0  0  0  0  0  0  0  0  0
   -7.2403  -11.7239   18.1154 N   0  0  0  0  0  0  0  0  0  0  0  0
   -8.0236  -10.9897   18.9033 C   0  0  0  0  0  0  0  0  0  0  0  0
   -9.2740  -11.6374   19.0109 N   0  0  0  0  0  0  0  0  0  0  0  0
   -8.7576  -16.9071   25.6583 N   0  0  0  0  0  0  0  0  0  0  0  0
  -10.2683  -21.5074   29.4561 H   0  0  0  0  0  0  0  0  0  0  0  0
  -10.1550  -20.5019   30.5595 H   0  0  0  0  0  0  0  0  0  0  0  0
  -11.3967  -20.3906   29.3109 H   0  0  0  0  0  0  0  0  0  0  0  0
   -9.2379  -21.8924   28.1049 H   0  0  0  0  0  0  0  0  0  0  0  0
  -10.8158  -21.4040   27.8889 H   0  0  0  0  0  0  0  0  0  0  0  0
  -10.3182  -20.8961   26.7588 H   0  0  0  0  0  0  0  0  0  0  0  0
   -6.1637  -17.7024   29.1264 H   0  0  0  0  0  0  0  0  0  0  0  0
  -10.7668  -16.2727   28.2885 H   0  0  0  0  0  0  0  0  0  0  0  0
  -10.9443  -14.5401   26.2132 H   0  0  0  0  0  0  0  0  0  0  0  0
   -8.5866  -15.8404   22.6904 H   0  0  0  0  0  0  0  0  0  0  0  0
   -8.6303  -14.6818   20.0082 H   0  0  0  0  0  0  0  0  0  0  0  0
   -7.1645  -12.3351   20.3029 H   0  0  0  0  0  0  0  0  0  0  0  0
   -7.6137  -13.5250   17.2137 H   0  0  0  0  0  0  0  0  0  0  0  0
   -6.3705  -11.4262   17.7029 H   0  0  0  0  0  0  0  0  0  0  0  0
   -8.0781   -9.9157   19.0523 H   0  0  0  0  0  0  0  0  0  0  0  0
  1  2  1  0
  2  3  1  0
  2  4  1  0
  4  5  2  0
  4  6  1  0
  2  7  1  0
  7  8  1  0
  8  9  2  0
  9 10  1  0
 10 11  1  0
 11 12  1  0
 12 13  2  0
 12 14  1  0
 14 15  1  0
 14 16  1  0
 16 17  2  0
 17 18  1  0
 18 19  1  0
 19 20  2  0
 10 21  2  0
 21  7  1  0
 20 16  1  0
  1 22  1  0
  1 23  1  0
  1 24  1  0
  3 25  1  0
  3 26  1  0
  3 27  1  0
  6 28  1  0
  8 29  1  0
  9 30  1  0
 11 31  1  0
 14 32  1  0
 15 33  1  0
 17 34  1  0
 18 35  1  0
 19 36  1  0
M  END
>  <Energy>  (684) 
952.50427586062438

>  <compound_id>  (684) 
48737

>  <target_id>  (684) 
1

>  <reference_id>  (684) 
64

>  <inspiration_ids>  (684) 
[99, 64]

>  <energy_score>  (684) 
900.8272965081751

>  <distance_score>  (684) 
13.722549540583147

>  <path>  (684) 
/opt/xchem-fragalysis-2/maxwin/BulkDock/SCRATCH/511025/C48737-P64/C48737-P64.minimised.mol

>  <scratch_subdir>  (684) 
/opt/xchem-fragalysis-2/maxwin/BulkDock/SCRATCH/511025/C48737-P64

>  <fragmenstein_runtime>  (684) 
32.45076823234558

>  <fragmenstein_outcome>  (684) 
too moved

>  <fragmenstein_mode>  (684) 
expansion

>  <fragmenstein_error>  (684) 


$$$$
C48738-P99
     RDKit          3D

 38 39  0  0  0  0  0  0  0  0999 V2000
  -13.8535  -19.7776   20.7279 C   0  0  0  0  0  0  0  0  0  0  0  0
  -14.1298  -18.7511   19.5776 C   0  0  0  0  0  0  0  0  0  0  0  0
  -13.5975  -19.3913   18.2772 C   0  0  0  0  0  0  0  0  0  0  0  0
  -15.6412  -18.5493   19.4269 C   0  0  0  0  0  0  0  0  0  0  0  0
  -16.4746  -19.0254   20.1876 O   0  0  0  0  0  0  0  0  0  0  0  0
  -16.0234  -17.7662   18.3882 O   0  0  0  0  0  0  0  0  0  0  0  0
  -13.5238  -17.4418   19.9020 N   0  0  0  0  0  0  0  0  0  0  0  0
  -13.7687  -16.7314   21.0209 C   0  0  0  0  0  0  0  0  0  0  0  0
  -12.6760  -15.8975   21.1017 C   0  0  0  0  0  0  0  0  0  0  0  0
  -11.8478  -15.8120   19.7728 C   0  0  0  0  0  0  0  0  0  0  0  0
  -10.2075  -15.1074   19.0798 N   0  0  0  0  0  0  0  0  0  0  0  0
   -9.3363  -13.7662   19.4854 C   0  0  0  0  0  0  0  0  0  0  0  0
   -9.5564  -13.0498   20.3921 O   0  0  0  0  0  0  0  0  0  0  0  0
   -7.9162  -13.0303   18.3882 C   0  0  0  0  0  0  0  0  0  0  0  0
   -6.9004  -11.5405   17.8690 C   0  0  0  0  0  0  0  0  0  0  0  0
   -6.4493  -10.0426   16.7326 C   0  0  0  0  0  0  0  0  0  0  0  0
   -5.7280   -9.6414   15.5931 C   0  0  0  0  0  0  0  0  0  0  0  0
   -5.7743   -8.2713   15.3698 N   0  0  0  0  0  0  0  0  0  0  0  0
   -6.5815   -7.7353   16.2938 C   0  0  0  0  0  0  0  0  0  0  0  0
   -7.0222   -8.6855   17.0760 N   0  0  0  0  0  0  0  0  0  0  0  0
  -12.5410  -16.8977   19.1298 N   0  0  0  0  0  0  0  0  0  0  0  0
  -14.2455  -19.4292   21.6897 H   0  0  0  0  0  0  0  0  0  0  0  0
  -12.7817  -19.9592   20.8497 H   0  0  0  0  0  0  0  0  0  0  0  0
  -14.3347  -20.7395   20.5149 H   0  0  0  0  0  0  0  0  0  0  0  0
  -13.7624  -18.7643   17.3966 H   0  0  0  0  0  0  0  0  0  0  0  0
  -12.5241  -19.5943   18.3344 H   0  0  0  0  0  0  0  0  0  0  0  0
  -14.1041  -20.3438   18.0791 H   0  0  0  0  0  0  0  0  0  0  0  0
  -15.3095  -17.4010   17.8275 H   0  0  0  0  0  0  0  0  0  0  0  0
  -14.4886  -17.0406   21.7681 H   0  0  0  0  0  0  0  0  0  0  0  0
  -12.2725  -15.7350   22.0966 H   0  0  0  0  0  0  0  0  0  0  0  0
   -9.7391  -15.5897   18.3112 H   0  0  0  0  0  0  0  0  0  0  0  0
   -7.7104  -13.6010   17.5037 H   0  0  0  0  0  0  0  0  0  0  0  0
   -8.7759  -12.4926   17.9764 H   0  0  0  0  0  0  0  0  0  0  0  0
   -7.3847  -10.9976   18.6735 H   0  0  0  0  0  0  0  0  0  0  0  0
   -5.8990  -11.9921   17.9735 H   0  0  0  0  0  0  0  0  0  0  0  0
   -5.2576  -10.1113   14.7628 H   0  0  0  0  0  0  0  0  0  0  0  0
   -5.3397   -7.7872   14.5974 H   0  0  0  0  0  0  0  0  0  0  0  0
   -6.8351   -6.6862   16.3546 H   0  0  0  0  0  0  0  0  0  0  0  0
  1  2  1  0
  2  3  1  0
  2  4  1  0
  4  5  2  0
  4  6  1  0
  2  7  1  0
  7  8  1  0
  8  9  2  0
  9 10  1  0
 10 11  1  0
 11 12  1  0
 12 13  2  0
 12 14  1  0
 14 15  1  0
 15 16  1  0
 16 17  2  0
 17 18  1  0
 18 19  1  0
 19 20  2  0
 10 21  2  0
 21  7  1  0
 20 16  1  0
  1 22  1  0
  1 23  1  0
  1 24  1  0
  3 25  1  0
  3 26  1  0
  3 27  1  0
  6 28  1  0
  8 29  1  0
  9 30  1  0
 11 31  1  0
 14 32  1  0
 14 33  1  0
 15 34  1  0
 15 35  1  0
 17 36  1  0
 18 37  1  0
 19 38  1  0
M  END
>  <Energy>  (685) 
362.52969022410076

>  <compound_id>  (685) 
48738

>  <target_id>  (685) 
1

>  <reference_id>  (685) 
99

>  <inspiration_ids>  (685) 
[99, 64]

>  <energy_score>  (685) 
342.69024974973024

>  <distance_score>  (685) 
12.672177879754432

>  <path>  (685) 
/opt/xchem-fragalysis-2/maxwin/BulkDock/SCRATCH/511025/C48738-P99/C48738-P99.minimised.mol

>  <scratch_subdir>  (685) 
/opt/xchem-fragalysis-2/maxwin/BulkDock/SCRATCH/511025/C48738-P99

>  <fragmenstein_runtime>  (685) 
30.12234091758728

>  <fragmenstein_outcome>  (685) 
too moved

>  <fragmenstein_mode>  (685) 
expansion

>  <fragmenstein_error>  (685) 


$$$$
C48738-P64
     RDKit          3D

 38 39  0  0  0  0  0  0  0  0999 V2000
  -11.0672  -22.6219   23.2864 C   0  0  0  0  0  0  0  0  0  0  0  0
  -10.0594  -21.6940   22.5565 C   0  0  0  0  0  0  0  0  0  0  0  0
  -10.3457  -21.6159   21.0191 C   0  0  0  0  0  0  0  0  0  0  0  0
  -10.7031  -20.3488   22.9574 C   0  0  0  0  0  0  0  0  0  0  0  0
  -11.9092  -20.1285   23.0613 O   0  0  0  0  0  0  0  0  0  0  0  0
   -9.9317  -19.2732   23.1380 O   0  0  0  0  0  0  0  0  0  0  0  0
   -8.5548  -21.9458   22.9153 N   0  0  0  0  0  0  0  0  0  0  0  0
   -7.6549  -23.3003   23.4382 C   0  0  0  0  0  0  0  0  0  0  0  0
   -6.0629  -23.0244   23.2573 C   0  0  0  0  0  0  0  0  0  0  0  0
   -5.9191  -21.2691   22.7707 C   0  0  0  0  0  0  0  0  0  0  0  0
   -4.9201  -20.6903   21.9188 N   0  0  0  0  0  0  0  0  0  0  0  0
   -4.9714  -19.4970   21.0364 C   0  0  0  0  0  0  0  0  0  0  0  0
   -5.8371  -18.6748   20.8806 O   0  0  0  0  0  0  0  0  0  0  0  0
   -3.7102  -19.3207   20.0363 C   0  0  0  0  0  0  0  0  0  0  0  0
   -3.7696  -17.9181   19.2794 C   0  0  0  0  0  0  0  0  0  0  0  0
   -2.9082  -17.4517   18.1001 C   0  0  0  0  0  0  0  0  0  0  0  0
   -1.6214  -16.9363   18.0911 C   0  0  0  0  0  0  0  0  0  0  0  0
   -1.4363  -16.3486   16.8604 N   0  0  0  0  0  0  0  0  0  0  0  0
   -2.5803  -16.5315   16.1476 C   0  0  0  0  0  0  0  0  0  0  0  0
   -3.4886  -17.1499   16.8704 N   0  0  0  0  0  0  0  0  0  0  0  0
   -7.3510  -20.6608   22.7236 N   0  0  0  0  0  0  0  0  0  0  0  0
  -11.6630  -22.1701   24.0890 H   0  0  0  0  0  0  0  0  0  0  0  0
  -10.6082  -23.5045   23.7288 H   0  0  0  0  0  0  0  0  0  0  0  0
  -11.8717  -22.8456   22.5895 H   0  0  0  0  0  0  0  0  0  0  0  0
  -11.2375  -21.0136   20.8055 H   0  0  0  0  0  0  0  0  0  0  0  0
  -10.5974  -22.5269   20.4899 H   0  0  0  0  0  0  0  0  0  0  0  0
   -9.5108  -21.1771   20.4766 H   0  0  0  0  0  0  0  0  0  0  0  0
  -10.5800  -18.5553   23.2127 H   0  0  0  0  0  0  0  0  0  0  0  0
   -8.3140  -24.0657   23.7661 H   0  0  0  0  0  0  0  0  0  0  0  0
   -5.2346  -23.7153   23.3118 H   0  0  0  0  0  0  0  0  0  0  0  0
   -4.0719  -21.2033   21.7330 H   0  0  0  0  0  0  0  0  0  0  0  0
   -3.7523  -20.1337   19.3045 H   0  0  0  0  0  0  0  0  0  0  0  0
   -2.7842  -19.4004   20.6138 H   0  0  0  0  0  0  0  0  0  0  0  0
   -3.5175  -17.2254   20.0891 H   0  0  0  0  0  0  0  0  0  0  0  0
   -4.8073  -17.7577   18.9682 H   0  0  0  0  0  0  0  0  0  0  0  0
   -0.8638  -16.8796   18.8592 H   0  0  0  0  0  0  0  0  0  0  0  0
   -0.6019  -15.8787   16.5382 H   0  0  0  0  0  0  0  0  0  0  0  0
   -2.6942  -16.2020   15.1255 H   0  0  0  0  0  0  0  0  0  0  0  0
  1  2  1  0
  2  3  1  0
  2  4  1  0
  4  5  2  0
  4  6  1  0
  2  7  1  0
  7  8  1  0
  8  9  2  0
  9 10  1  0
 10 11  1  0
 11 12  1  0
 12 13  2  0
 12 14  1  0
 14 15  1  0
 15 16  1  0
 16 17  2  0
 17 18  1  0
 18 19  1  0
 19 20  2  0
 10 21  2  0
 21  7  1  0
 20 16  1  0
  1 22  1  0
  1 23  1  0
  1 24  1  0
  3 25  1  0
  3 26  1  0
  3 27  1  0
  6 28  1  0
  8 29  1  0
  9 30  1  0
 11 31  1  0
 14 32  1  0
 14 33  1  0
 15 34  1  0
 15 35  1  0
 17 36  1  0
 18 37  1  0
 19 38  1  0
M  END
>  <Energy>  (686) 
183.29195844261974

>  <compound_id>  (686) 
48738

>  <target_id>  (686) 
1

>  <reference_id>  (686) 
64

>  <inspiration_ids>  (686) 
[99, 64]

>  <energy_score>  (686) 
163.45251796825391

>  <distance_score>  (686) 
15.492400883143176

>  <path>  (686) 
/opt/xchem-fragalysis-2/maxwin/BulkDock/SCRATCH/511025/C48738-P64/C48738-P64.minimised.mol

>  <scratch_subdir>  (686) 
/opt/xchem-fragalysis-2/maxwin/BulkDock/SCRATCH/511025/C48738-P64

>  <fragmenstein_runtime>  (686) 
27.965564012527466

>  <fragmenstein_outcome>  (686) 
too moved

>  <fragmenstein_mode>  (686) 
expansion

>  <fragmenstein_error>  (686) 


$$$$
C48739-P99
     RDKit          3D

 43 44  0  0  0  0  0  0  0  0999 V2000
   -9.0013  -21.2974   22.1901 C   0  0  0  0  0  0  0  0  0  0  0  0
   -7.6404  -19.8999   22.3062 C   0  0  0  0  0  0  0  0  0  0  0  0
   -7.2361  -18.4474   21.6799 N   0  0  0  0  0  0  0  0  0  0  0  0
   -6.2053  -18.4089   20.8310 C   0  0  0  0  0  0  0  0  0  0  0  0
   -6.5364  -17.3397   20.0734 C   0  0  0  0  0  0  0  0  0  0  0  0
   -7.8220  -16.2491   20.6704 C   0  0  0  0  0  0  0  0  0  0  0  0
   -8.6730  -14.7967   19.5258 C   0  0  0  0  0  0  0  0  0  0  0  0
  -10.2183  -14.6002   19.0619 O   0  0  0  0  0  0  0  0  0  0  0  0
   -8.1324  -13.9537   18.9283 N   0  0  0  0  0  0  0  0  0  0  0  0
   -8.3895  -12.5836   17.5369 C   0  0  0  0  0  0  0  0  0  0  0  0
   -7.1604  -13.7820   16.7877 C   0  0  0  0  0  0  0  0  0  0  0  0
   -8.8649  -12.2595   15.4922 C   0  0  0  0  0  0  0  0  0  0  0  0
   -8.6071  -11.3706   14.2461 N   0  0  0  0  0  0  0  0  0  0  0  0
   -8.1302  -11.7241   12.8871 C   0  0  0  0  0  0  0  0  0  0  0  0
   -7.7484  -12.7788   12.4379 O   0  0  0  0  0  0  0  0  0  0  0  0
   -8.1068  -10.5576   11.8748 C   0  0  0  0  0  0  0  0  0  0  0  0
   -9.3365   -9.8724   11.8890 O   0  0  0  0  0  0  0  0  0  0  0  0
   -6.8924   -9.6463   11.8651 C   0  0  0  0  0  0  0  0  0  0  0  0
   -6.0690   -9.3592   10.7839 C   0  0  0  0  0  0  0  0  0  0  0  0
   -5.1569   -8.4438   11.2319 N   0  0  0  0  0  0  0  0  0  0  0  0
   -5.4561   -8.1782   12.5356 C   0  0  0  0  0  0  0  0  0  0  0  0
   -6.4971   -8.8722   12.9440 N   0  0  0  0  0  0  0  0  0  0  0  0
   -7.8892  -17.2163   21.8088 N   0  0  0  0  0  0  0  0  0  0  0  0
   -9.1999  -21.6264   21.1525 H   0  0  0  0  0  0  0  0  0  0  0  0
   -8.7362  -22.1808   22.7936 H   0  0  0  0  0  0  0  0  0  0  0  0
   -9.9897  -21.0069   22.6078 H   0  0  0  0  0  0  0  0  0  0  0  0
   -8.1843  -19.3244   23.0114 H   0  0  0  0  0  0  0  0  0  0  0  0
   -7.6601  -20.0427   21.2248 H   0  0  0  0  0  0  0  0  0  0  0  0
   -5.5929  -19.2599   20.5883 H   0  0  0  0  0  0  0  0  0  0  0  0
   -6.2418  -17.4984   19.0520 H   0  0  0  0  0  0  0  0  0  0  0  0
   -7.3702  -13.3793   18.6778 H   0  0  0  0  0  0  0  0  0  0  0  0
   -9.4460  -12.5499   17.8780 H   0  0  0  0  0  0  0  0  0  0  0  0
   -7.2263  -14.0857   15.7608 H   0  0  0  0  0  0  0  0  0  0  0  0
   -7.1381  -14.8930   16.9433 H   0  0  0  0  0  0  0  0  0  0  0  0
   -6.1192  -13.4602   17.0759 H   0  0  0  0  0  0  0  0  0  0  0  0
  -10.0115  -12.2207   15.3611 H   0  0  0  0  0  0  0  0  0  0  0  0
   -8.8661  -13.2355   14.9096 H   0  0  0  0  0  0  0  0  0  0  0  0
   -8.9283  -10.4044   14.2450 H   0  0  0  0  0  0  0  0  0  0  0  0
   -8.0985  -11.0622   10.8958 H   0  0  0  0  0  0  0  0  0  0  0  0
   -9.2989   -9.2981   11.1059 H   0  0  0  0  0  0  0  0  0  0  0  0
   -6.0592   -9.7258    9.7669 H   0  0  0  0  0  0  0  0  0  0  0  0
   -4.3923   -8.0469   10.7030 H   0  0  0  0  0  0  0  0  0  0  0  0
   -4.8872   -7.4807   13.1351 H   0  0  0  0  0  0  0  0  0  0  0  0
  1  2  1  0
  2  3  1  0
  3  4  1  0
  4  5  2  0
  5  6  1  0
  6  7  1  0
  7  8  2  0
  7  9  1  0
  9 10  1  0
 10 11  1  0
 10 12  1  0
 12 13  1  0
 13 14  1  0
 14 15  2  0
 14 16  1  0
 16 17  1  0
 16 18  1  0
 18 19  2  0
 19 20  1  0
 20 21  1  0
 21 22  2  0
  6 23  2  0
 23  3  1  0
 22 18  1  0
  1 24  1  0
  1 25  1  0
  1 26  1  0
  2 27  1  0
  2 28  1  0
  4 29  1  0
  5 30  1  0
  9 31  1  0
 10 32  1  0
 11 33  1  0
 11 34  1  0
 11 35  1  0
 12 36  1  0
 12 37  1  0
 13 38  1  0
 16 39  1  0
 17 40  1  0
 19 41  1  0
 20 42  1  0
 21 43  1  0
M  END
>  <Energy>  (687) 
913.32371093188908

>  <compound_id>  (687) 
48739

>  <target_id>  (687) 
1

>  <reference_id>  (687) 
99

>  <inspiration_ids>  (687) 
[99, 64]

>  <energy_score>  (687) 
807.6595888498098

>  <distance_score>  (687) 
10.999995770422746

>  <path>  (687) 
/opt/xchem-fragalysis-2/maxwin/BulkDock/SCRATCH/511025/C48739-P99/C48739-P99.minimised.mol

>  <scratch_subdir>  (687) 
/opt/xchem-fragalysis-2/maxwin/BulkDock/SCRATCH/511025/C48739-P99

>  <fragmenstein_runtime>  (687) 
42.938697814941406

>  <fragmenstein_outcome>  (687) 
too moved

>  <fragmenstein_mode>  (687) 
expansion

>  <fragmenstein_error>  (687) 


$$$$
C48739-P64
     RDKit          3D

 43 44  0  0  0  0  0  0  0  0999 V2000
  -11.9936  -23.0223   24.5326 C   0  0  0  0  0  0  0  0  0  0  0  0
  -11.8557  -21.7215   23.7389 C   0  0  0  0  0  0  0  0  0  0  0  0
  -11.1793  -21.8033   22.4601 N   0  0  0  0  0  0  0  0  0  0  0  0
  -11.8523  -22.2273   21.3920 C   0  0  0  0  0  0  0  0  0  0  0  0
  -10.9573  -22.2408   20.3755 C   0  0  0  0  0  0  0  0  0  0  0  0
   -9.8072  -21.4689   20.7403 C   0  0  0  0  0  0  0  0  0  0  0  0
   -8.8270  -20.5112   19.5000 C   0  0  0  0  0  0  0  0  0  0  0  0
   -9.2343  -20.7266   18.4142 O   0  0  0  0  0  0  0  0  0  0  0  0
   -7.5583  -19.3045   19.7871 N   0  0  0  0  0  0  0  0  0  0  0  0
   -6.7355  -18.0818   18.6249 C   0  0  0  0  0  0  0  0  0  0  0  0
   -5.2268  -18.4491   18.5549 C   0  0  0  0  0  0  0  0  0  0  0  0
   -7.7143  -16.7860   17.3445 C   0  0  0  0  0  0  0  0  0  0  0  0
   -7.0857  -15.8752   15.7582 N   0  0  0  0  0  0  0  0  0  0  0  0
   -7.9685  -15.0033   14.4778 C   0  0  0  0  0  0  0  0  0  0  0  0
   -9.1633  -14.7292   14.4028 O   0  0  0  0  0  0  0  0  0  0  0  0
   -7.1380  -14.5136   12.9398 C   0  0  0  0  0  0  0  0  0  0  0  0
   -5.9405  -14.9535   12.3092 O   0  0  0  0  0  0  0  0  0  0  0  0
   -7.4578  -13.0343   12.3694 C   0  0  0  0  0  0  0  0  0  0  0  0
   -6.9466  -12.4770   11.1940 C   0  0  0  0  0  0  0  0  0  0  0  0
   -7.4029  -11.1867   11.1340 N   0  0  0  0  0  0  0  0  0  0  0  0
   -8.1807  -10.9891   12.2336 C   0  0  0  0  0  0  0  0  0  0  0  0
   -8.2322  -12.0682   12.9860 N   0  0  0  0  0  0  0  0  0  0  0  0
   -9.9192  -21.3860   22.1551 N   0  0  0  0  0  0  0  0  0  0  0  0
  -12.9719  -23.4691   24.3336 H   0  0  0  0  0  0  0  0  0  0  0  0
  -11.1811  -23.7231   24.3279 H   0  0  0  0  0  0  0  0  0  0  0  0
  -11.9989  -22.8650   25.6140 H   0  0  0  0  0  0  0  0  0  0  0  0
  -11.4782  -20.8592   24.2773 H   0  0  0  0  0  0  0  0  0  0  0  0
  -12.8929  -21.4863   23.5302 H   0  0  0  0  0  0  0  0  0  0  0  0
  -12.8578  -22.5895   21.4408 H   0  0  0  0  0  0  0  0  0  0  0  0
  -11.1862  -22.7557   19.4754 H   0  0  0  0  0  0  0  0  0  0  0  0
   -7.4149  -19.2154   20.7908 H   0  0  0  0  0  0  0  0  0  0  0  0
   -6.6143  -17.3584   19.4424 H   0  0  0  0  0  0  0  0  0  0  0  0
   -4.6093  -17.5789   18.3123 H   0  0  0  0  0  0  0  0  0  0  0  0
   -4.9115  -18.8211   19.5303 H   0  0  0  0  0  0  0  0  0  0  0  0
   -4.9586  -19.2464   17.8668 H   0  0  0  0  0  0  0  0  0  0  0  0
   -8.2887  -16.0721   17.9255 H   0  0  0  0  0  0  0  0  0  0  0  0
   -8.3861  -17.4844   16.8897 H   0  0  0  0  0  0  0  0  0  0  0  0
   -6.1299  -16.0082   15.4860 H   0  0  0  0  0  0  0  0  0  0  0  0
   -7.8519  -15.0790   12.3110 H   0  0  0  0  0  0  0  0  0  0  0  0
   -5.3068  -14.2209   12.3593 H   0  0  0  0  0  0  0  0  0  0  0  0
   -6.3102  -12.8915   10.4248 H   0  0  0  0  0  0  0  0  0  0  0  0
   -7.2291  -10.5115   10.4023 H   0  0  0  0  0  0  0  0  0  0  0  0
   -8.6903  -10.0562   12.4324 H   0  0  0  0  0  0  0  0  0  0  0  0
  1  2  1  0
  2  3  1  0
  3  4  1  0
  4  5  2  0
  5  6  1  0
  6  7  1  0
  7  8  2  0
  7  9  1  0
  9 10  1  0
 10 11  1  0
 10 12  1  0
 12 13  1  0
 13 14  1  0
 14 15  2  0
 14 16  1  0
 16 17  1  0
 16 18  1  0
 18 19  2  0
 19 20  1  0
 20 21  1  0
 21 22  2  0
  6 23  2  0
 23  3  1  0
 22 18  1  0
  1 24  1  0
  1 25  1  0
  1 26  1  0
  2 27  1  0
  2 28  1  0
  4 29  1  0
  5 30  1  0
  9 31  1  0
 10 32  1  0
 11 33  1  0
 11 34  1  0
 11 35  1  0
 12 36  1  0
 12 37  1  0
 13 38  1  0
 16 39  1  0
 17 40  1  0
 19 41  1  0
 20 42  1  0
 21 43  1  0
M  END
>  <Energy>  (688) 
489.13961500915968

>  <compound_id>  (688) 
48739

>  <target_id>  (688) 
1

>  <reference_id>  (688) 
64

>  <inspiration_ids>  (688) 
[99, 64]

>  <energy_score>  (688) 
383.47549292707527

>  <distance_score>  (688) 
11.544775656142214

>  <path>  (688) 
/opt/xchem-fragalysis-2/maxwin/BulkDock/SCRATCH/511025/C48739-P64/C48739-P64.minimised.mol

>  <scratch_subdir>  (688) 
/opt/xchem-fragalysis-2/maxwin/BulkDock/SCRATCH/511025/C48739-P64

>  <fragmenstein_runtime>  (688) 
26.478256225585938

>  <fragmenstein_outcome>  (688) 
too moved

>  <fragmenstein_mode>  (688) 
expansion

>  <fragmenstein_error>  (688) 


$$$$
C48740-P99
     RDKit          3D

 45 46  0  0  0  0  0  0  0  0999 V2000
  -10.6897  -10.7832   18.4494 C   0  0  0  0  0  0  0  0  0  0  0  0
  -11.2352  -12.0459   18.0318 C   0  0  0  0  0  0  0  0  0  0  0  0
  -10.1013  -12.5180   17.5049 N   0  0  0  0  0  0  0  0  0  0  0  0
  -10.4590  -14.1339   18.8440 C   0  0  0  0  0  0  0  0  0  0  0  0
  -11.9252  -15.5860   19.7425 C   0  0  0  0  0  0  0  0  0  0  0  0
  -12.8773  -16.4524   21.1594 N   0  0  0  0  0  0  0  0  0  0  0  0
  -12.5137  -16.6239   22.8303 C   0  0  0  0  0  0  0  0  0  0  0  0
  -11.6120  -16.0844   23.3285 O   0  0  0  0  0  0  0  0  0  0  0  0
  -13.3146  -17.8560   24.1143 C   0  0  0  0  0  0  0  0  0  0  0  0
  -13.6435  -19.7402   24.1995 N   0  0  0  0  0  0  0  0  0  0  0  0
  -14.7877  -20.7695   24.1087 C   0  0  0  0  0  0  0  0  0  0  0  0
  -14.2707  -22.0528   23.8536 C   0  0  0  0  0  0  0  0  0  0  0  0
  -12.8551  -21.9560   23.8782 C   0  0  0  0  0  0  0  0  0  0  0  0
  -12.3704  -20.7211   24.0788 N   0  0  0  0  0  0  0  0  0  0  0  0
  -10.2042  -12.4184   15.5553 C   0  0  0  0  0  0  0  0  0  0  0  0
  -10.6168  -13.3266   14.8599 O   0  0  0  0  0  0  0  0  0  0  0  0
   -9.5359  -11.0256   14.4599 C   0  0  0  0  0  0  0  0  0  0  0  0
   -9.2328  -11.2229   12.9012 C   0  0  0  0  0  0  0  0  0  0  0  0
   -8.1874  -10.3622   12.2053 C   0  0  0  0  0  0  0  0  0  0  0  0
   -8.0102  -10.2173   10.8373 C   0  0  0  0  0  0  0  0  0  0  0  0
   -6.8933   -9.4444   10.6765 N   0  0  0  0  0  0  0  0  0  0  0  0
   -6.4304   -9.1462   11.9226 C   0  0  0  0  0  0  0  0  0  0  0  0
   -7.2014   -9.6609   12.8577 N   0  0  0  0  0  0  0  0  0  0  0  0
   -9.7516  -10.9445   18.9456 H   0  0  0  0  0  0  0  0  0  0  0  0
  -10.8317   -9.7668   18.7388 H   0  0  0  0  0  0  0  0  0  0  0  0
  -11.6799  -10.4711   18.7531 H   0  0  0  0  0  0  0  0  0  0  0  0
  -12.3076  -11.8083   17.9207 H   0  0  0  0  0  0  0  0  0  0  0  0
  -11.4659  -11.7950   16.9975 H   0  0  0  0  0  0  0  0  0  0  0  0
   -9.7000  -15.0411   18.9589 H   0  0  0  0  0  0  0  0  0  0  0  0
   -9.7661  -13.6626   19.5659 H   0  0  0  0  0  0  0  0  0  0  0  0
  -12.8030  -15.6377   19.1525 H   0  0  0  0  0  0  0  0  0  0  0  0
  -11.8835  -15.1708   20.7351 H   0  0  0  0  0  0  0  0  0  0  0  0
  -13.7445  -16.9274   20.9662 H   0  0  0  0  0  0  0  0  0  0  0  0
  -12.3445  -17.9133   24.4840 H   0  0  0  0  0  0  0  0  0  0  0  0
  -14.2217  -17.4784   24.6514 H   0  0  0  0  0  0  0  0  0  0  0  0
  -15.7960  -20.4912   24.3560 H   0  0  0  0  0  0  0  0  0  0  0  0
  -14.8514  -22.9627   23.8327 H   0  0  0  0  0  0  0  0  0  0  0  0
  -12.1352  -22.7527   23.8021 H   0  0  0  0  0  0  0  0  0  0  0  0
  -10.0945  -10.0998   14.5518 H   0  0  0  0  0  0  0  0  0  0  0  0
   -8.5134  -10.9207   14.7620 H   0  0  0  0  0  0  0  0  0  0  0  0
  -10.1475  -11.0659   12.3186 H   0  0  0  0  0  0  0  0  0  0  0  0
   -8.9340  -12.2689   12.7533 H   0  0  0  0  0  0  0  0  0  0  0  0
   -8.5643  -10.6060    9.9955 H   0  0  0  0  0  0  0  0  0  0  0  0
   -6.4889   -9.1430    9.8016 H   0  0  0  0  0  0  0  0  0  0  0  0
   -5.5459   -8.5475   12.0886 H   0  0  0  0  0  0  0  0  0  0  0  0
  1  2  1  0
  2  3  1  0
  3  4  1  0
  4  5  1  0
  5  6  1  0
  6  7  1  0
  7  8  2  0
  7  9  1  0
  9 10  1  0
 10 11  1  0
 11 12  2  0
 12 13  1  0
 13 14  2  0
  3 15  1  0
 15 16  2  0
 15 17  1  0
 17 18  1  0
 18 19  1  0
 19 20  2  0
 20 21  1  0
 21 22  1  0
 22 23  2  0
 14 10  1  0
 23 19  1  0
  1 24  1  0
  1 25  1  0
  1 26  1  0
  2 27  1  0
  2 28  1  0
  4 29  1  0
  4 30  1  0
  5 31  1  0
  5 32  1  0
  6 33  1  0
  9 34  1  0
  9 35  1  0
 11 36  1  0
 12 37  1  0
 13 38  1  0
 17 39  1  0
 17 40  1  0
 18 41  1  0
 18 42  1  0
 20 43  1  0
 21 44  1  0
 22 45  1  0
M  END
>  <Energy>  (689) 
1046.637585655606

>  <compound_id>  (689) 
48740

>  <target_id>  (689) 
1

>  <reference_id>  (689) 
99

>  <inspiration_ids>  (689) 
[99, 64]

>  <energy_score>  (689) 
1019.4327512391415

>  <distance_score>  (689) 
9.060351765687438

>  <path>  (689) 
/opt/xchem-fragalysis-2/maxwin/BulkDock/SCRATCH/511025/C48740-P99/C48740-P99.minimised.mol

>  <scratch_subdir>  (689) 
/opt/xchem-fragalysis-2/maxwin/BulkDock/SCRATCH/511025/C48740-P99

>  <fragmenstein_runtime>  (689) 
35.387863636016846

>  <fragmenstein_outcome>  (689) 
too moved

>  <fragmenstein_mode>  (689) 
expansion

>  <fragmenstein_error>  (689) 


$$$$
C48740-P64
     RDKit          3D

 45 46  0  0  0  0  0  0  0  0999 V2000
   -8.3829  -16.5681   17.6700 C   0  0  0  0  0  0  0  0  0  0  0  0
   -9.4166  -15.6250   18.9009 C   0  0  0  0  0  0  0  0  0  0  0  0
   -8.4798  -14.7209   19.2103 N   0  0  0  0  0  0  0  0  0  0  0  0
   -7.7200  -16.3394   20.3003 C   0  0  0  0  0  0  0  0  0  0  0  0
   -7.4555  -18.0872   21.4319 C   0  0  0  0  0  0  0  0  0  0  0  0
   -7.3615  -19.8954   22.1376 N   0  0  0  0  0  0  0  0  0  0  0  0
   -8.6727  -21.1682   22.4163 C   0  0  0  0  0  0  0  0  0  0  0  0
   -9.9062  -21.0521   22.2708 O   0  0  0  0  0  0  0  0  0  0  0  0
   -8.2633  -22.9382   23.1757 C   0  0  0  0  0  0  0  0  0  0  0  0
   -6.7468  -23.7711   23.2611 N   0  0  0  0  0  0  0  0  0  0  0  0
   -5.6477  -23.6500   24.1050 C   0  0  0  0  0  0  0  0  0  0  0  0
   -4.5345  -24.1257   23.4599 C   0  0  0  0  0  0  0  0  0  0  0  0
   -5.0343  -24.7087   22.3058 C   0  0  0  0  0  0  0  0  0  0  0  0
   -6.3455  -24.5464   22.1837 N   0  0  0  0  0  0  0  0  0  0  0  0
   -7.8351  -13.8827   17.6164 C   0  0  0  0  0  0  0  0  0  0  0  0
   -6.8450  -14.2420   16.8585 O   0  0  0  0  0  0  0  0  0  0  0  0
   -8.4098  -12.4756   17.1061 C   0  0  0  0  0  0  0  0  0  0  0  0
   -8.9807  -12.2940   15.1665 C   0  0  0  0  0  0  0  0  0  0  0  0
   -8.5756  -11.3467   13.9455 C   0  0  0  0  0  0  0  0  0  0  0  0
   -8.9774  -10.0930   13.5420 C   0  0  0  0  0  0  0  0  0  0  0  0
   -8.4055   -9.8846   12.3112 N   0  0  0  0  0  0  0  0  0  0  0  0
   -7.6591  -10.9658   11.9973 C   0  0  0  0  0  0  0  0  0  0  0  0
   -7.7858  -11.8782   12.9243 N   0  0  0  0  0  0  0  0  0  0  0  0
   -7.5650  -17.0545   18.1993 H   0  0  0  0  0  0  0  0  0  0  0  0
   -7.8251  -16.1163   16.8735 H   0  0  0  0  0  0  0  0  0  0  0  0
   -8.7221  -17.4949   17.2063 H   0  0  0  0  0  0  0  0  0  0  0  0
  -10.2319  -14.9346   18.9147 H   0  0  0  0  0  0  0  0  0  0  0  0
   -9.9786  -16.1856   19.5981 H   0  0  0  0  0  0  0  0  0  0  0  0
   -8.7019  -16.4046   20.5856 H   0  0  0  0  0  0  0  0  0  0  0  0
   -7.6715  -15.9362   21.2114 H   0  0  0  0  0  0  0  0  0  0  0  0
   -8.3252  -18.0065   21.9665 H   0  0  0  0  0  0  0  0  0  0  0  0
   -7.1276  -18.6079   20.5256 H   0  0  0  0  0  0  0  0  0  0  0  0
   -6.4408  -20.3129   22.2608 H   0  0  0  0  0  0  0  0  0  0  0  0
   -8.9961  -23.4990   23.7436 H   0  0  0  0  0  0  0  0  0  0  0  0
   -8.5180  -23.5168   22.3043 H   0  0  0  0  0  0  0  0  0  0  0  0
   -5.6902  -23.2587   25.1083 H   0  0  0  0  0  0  0  0  0  0  0  0
   -3.5213  -24.1357   23.8315 H   0  0  0  0  0  0  0  0  0  0  0  0
   -4.5047  -25.2553   21.5374 H   0  0  0  0  0  0  0  0  0  0  0  0
   -7.6073  -11.7908   17.4308 H   0  0  0  0  0  0  0  0  0  0  0  0
   -9.2824  -12.3992   17.8250 H   0  0  0  0  0  0  0  0  0  0  0  0
  -10.0681  -12.2434   15.1578 H   0  0  0  0  0  0  0  0  0  0  0  0
   -8.9493  -13.3100   14.6921 H   0  0  0  0  0  0  0  0  0  0  0  0
   -9.6470   -9.3817   13.9899 H   0  0  0  0  0  0  0  0  0  0  0  0
   -8.5666   -9.1187   11.6801 H   0  0  0  0  0  0  0  0  0  0  0  0
   -7.0912  -11.0573   11.0821 H   0  0  0  0  0  0  0  0  0  0  0  0
  1  2  1  0
  2  3  1  0
  3  4  1  0
  4  5  1  0
  5  6  1  0
  6  7  1  0
  7  8  2  0
  7  9  1  0
  9 10  1  0
 10 11  1  0
 11 12  2  0
 12 13  1  0
 13 14  2  0
  3 15  1  0
 15 16  2  0
 15 17  1  0
 17 18  1  0
 18 19  1  0
 19 20  2  0
 20 21  1  0
 21 22  1  0
 22 23  2  0
 14 10  1  0
 23 19  1  0
  1 24  1  0
  1 25  1  0
  1 26  1  0
  2 27  1  0
  2 28  1  0
  4 29  1  0
  4 30  1  0
  5 31  1  0
  5 32  1  0
  6 33  1  0
  9 34  1  0
  9 35  1  0
 11 36  1  0
 12 37  1  0
 13 38  1  0
 17 39  1  0
 17 40  1  0
 18 41  1  0
 18 42  1  0
 20 43  1  0
 21 44  1  0
 22 45  1  0
M  END
>  <Energy>  (690) 
938.38789327473739

>  <compound_id>  (690) 
48740

>  <target_id>  (690) 
1

>  <reference_id>  (690) 
64

>  <inspiration_ids>  (690) 
[99, 64]

>  <energy_score>  (690) 
911.1830588582907

>  <distance_score>  (690) 
10.96353417066891

>  <path>  (690) 
/opt/xchem-fragalysis-2/maxwin/BulkDock/SCRATCH/511025/C48740-P64/C48740-P64.minimised.mol

>  <scratch_subdir>  (690) 
/opt/xchem-fragalysis-2/maxwin/BulkDock/SCRATCH/511025/C48740-P64

>  <fragmenstein_runtime>  (690) 
27.282222032546997

>  <fragmenstein_outcome>  (690) 
too moved

>  <fragmenstein_mode>  (690) 
expansion

>  <fragmenstein_error>  (690) 


$$$$
C17985-P99
     RDKit          3D

 45 46  0  0  0  0  0  0  0  0999 V2000
  -14.8574  -13.0508   18.2555 C   0  0  0  0  0  0  0  0  0  0  0  0
  -13.9219  -12.0966   17.4594 C   0  0  0  0  0  0  0  0  0  0  0  0
  -13.4057  -11.7036   16.2905 N   0  0  0  0  0  0  0  0  0  0  0  0
  -13.9014  -13.8251   16.0779 C   0  0  0  0  0  0  0  0  0  0  0  0
  -14.2568  -15.2092   17.6979 C   0  0  0  0  0  0  0  0  0  0  0  0
  -14.1762  -16.4112   19.4173 N   0  0  0  0  0  0  0  0  0  0  0  0
  -13.0769  -16.3425   20.9534 C   0  0  0  0  0  0  0  0  0  0  0  0
  -12.2680  -15.5420   20.8276 O   0  0  0  0  0  0  0  0  0  0  0  0
  -12.9676  -17.1163   22.8854 C   0  0  0  0  0  0  0  0  0  0  0  0
  -13.1931  -18.9402   23.7637 N   0  0  0  0  0  0  0  0  0  0  0  0
  -12.1433  -20.4639   23.8302 C   0  0  0  0  0  0  0  0  0  0  0  0
  -12.8010  -21.6842   23.8543 C   0  0  0  0  0  0  0  0  0  0  0  0
  -14.1592  -21.3644   23.9476 C   0  0  0  0  0  0  0  0  0  0  0  0
  -14.3808  -20.0381   24.2526 N   0  0  0  0  0  0  0  0  0  0  0  0
  -13.9557  -10.3547   15.2007 C   0  0  0  0  0  0  0  0  0  0  0  0
  -14.9567   -9.7431   15.4020 O   0  0  0  0  0  0  0  0  0  0  0  0
  -13.0269   -9.5476   13.7729 C   0  0  0  0  0  0  0  0  0  0  0  0
  -13.4644   -8.0426   13.0711 C   0  0  0  0  0  0  0  0  0  0  0  0
  -12.5912   -6.7915   12.9379 C   0  0  0  0  0  0  0  0  0  0  0  0
  -12.2579   -6.2415   11.5667 N   0  0  0  0  0  0  0  0  0  0  0  0
  -10.5314   -5.3776   11.7922 C   0  0  0  0  0  0  0  0  0  0  0  0
  -10.3590   -5.3371   13.4098 C   0  0  0  0  0  0  0  0  0  0  0  0
  -11.6171   -6.1200   14.0231 N   0  0  0  0  0  0  0  0  0  0  0  0
  -14.1607  -13.6895   18.6467 H   0  0  0  0  0  0  0  0  0  0  0  0
  -15.3111  -12.5271   19.1457 H   0  0  0  0  0  0  0  0  0  0  0  0
  -15.5144  -13.7328   17.6968 H   0  0  0  0  0  0  0  0  0  0  0  0
  -12.9470  -11.6527   17.8746 H   0  0  0  0  0  0  0  0  0  0  0  0
  -14.3380  -11.1236   17.8640 H   0  0  0  0  0  0  0  0  0  0  0  0
  -13.0956  -14.2123   15.3817 H   0  0  0  0  0  0  0  0  0  0  0  0
  -14.8914  -14.1174   15.6066 H   0  0  0  0  0  0  0  0  0  0  0  0
  -14.9970  -14.8474   18.3230 H   0  0  0  0  0  0  0  0  0  0  0  0
  -14.8176  -15.6415   16.8426 H   0  0  0  0  0  0  0  0  0  0  0  0
  -14.9166  -17.0624   19.6065 H   0  0  0  0  0  0  0  0  0  0  0  0
  -11.9940  -16.8092   23.3433 H   0  0  0  0  0  0  0  0  0  0  0  0
  -13.4497  -16.4984   23.6832 H   0  0  0  0  0  0  0  0  0  0  0  0
  -11.0951  -20.3713   23.5831 H   0  0  0  0  0  0  0  0  0  0  0  0
  -12.3433  -22.6549   23.7801 H   0  0  0  0  0  0  0  0  0  0  0  0
  -15.0064  -22.0370   24.0211 H   0  0  0  0  0  0  0  0  0  0  0  0
  -13.3921   -9.8518   12.8296 H   0  0  0  0  0  0  0  0  0  0  0  0
  -11.9736   -9.4172   13.9419 H   0  0  0  0  0  0  0  0  0  0  0  0
  -14.5078   -7.7714   13.0288 H   0  0  0  0  0  0  0  0  0  0  0  0
  -13.5085   -8.3352   12.0036 H   0  0  0  0  0  0  0  0  0  0  0  0
  -10.0871   -4.8374   10.9654 H   0  0  0  0  0  0  0  0  0  0  0  0
   -9.6663   -4.8581   14.0893 H   0  0  0  0  0  0  0  0  0  0  0  0
  -11.5784   -6.4052   14.9811 H   0  0  0  0  0  0  0  0  0  0  0  0
  1  2  1  0
  2  3  1  0
  3  4  1  0
  4  5  1  0
  5  6  1  0
  6  7  1  0
  7  8  2  0
  7  9  1  0
  9 10  1  0
 10 11  1  0
 11 12  2  0
 12 13  1  0
 13 14  2  0
  3 15  1  0
 15 16  2  0
 15 17  1  0
 17 18  1  0
 18 19  1  0
 19 20  2  0
 20 21  1  0
 21 22  2  0
 22 23  1  0
 14 10  1  0
 23 19  1  0
  1 24  1  0
  1 25  1  0
  1 26  1  0
  2 27  1  0
  2 28  1  0
  4 29  1  0
  4 30  1  0
  5 31  1  0
  5 32  1  0
  6 33  1  0
  9 34  1  0
  9 35  1  0
 11 36  1  0
 12 37  1  0
 13 38  1  0
 17 39  1  0
 17 40  1  0
 18 41  1  0
 18 42  1  0
 21 43  1  0
 22 44  1  0
 23 45  1  0
M  END
>  <Energy>  (691) 
1498.6005960105849

>  <compound_id>  (691) 
17985

>  <target_id>  (691) 
1

>  <reference_id>  (691) 
99

>  <inspiration_ids>  (691) 
[99, 64]

>  <energy_score>  (691) 
1454.7258525721552

>  <distance_score>  (691) 
9.107718966279368

>  <path>  (691) 
/opt/xchem-fragalysis-2/maxwin/BulkDock/SCRATCH/511025/C17985-P99/C17985-P99.minimised.mol

>  <scratch_subdir>  (691) 
/opt/xchem-fragalysis-2/maxwin/BulkDock/SCRATCH/511025/C17985-P99

>  <fragmenstein_runtime>  (691) 
31.27175998687744

>  <fragmenstein_outcome>  (691) 
too moved

>  <fragmenstein_mode>  (691) 
expansion

>  <fragmenstein_error>  (691) 


$$$$
C17985-P64
     RDKit          3D

 45 46  0  0  0  0  0  0  0  0999 V2000
  -14.4943  -10.4425   18.5595 C   0  0  0  0  0  0  0  0  0  0  0  0
  -13.2804  -11.4678   17.6964 C   0  0  0  0  0  0  0  0  0  0  0  0
  -12.6091  -11.4209   16.3725 N   0  0  0  0  0  0  0  0  0  0  0  0
  -11.2320  -11.9316   17.8994 C   0  0  0  0  0  0  0  0  0  0  0  0
  -10.5326  -13.7146   19.0611 C   0  0  0  0  0  0  0  0  0  0  0  0
  -11.6596  -15.2670   20.1176 N   0  0  0  0  0  0  0  0  0  0  0  0
  -11.8383  -15.6904   22.0231 C   0  0  0  0  0  0  0  0  0  0  0  0
  -11.2494  -14.9434   22.6983 O   0  0  0  0  0  0  0  0  0  0  0  0
  -12.8273  -16.8618   23.1523 C   0  0  0  0  0  0  0  0  0  0  0  0
  -13.2667  -18.6165   23.9836 N   0  0  0  0  0  0  0  0  0  0  0  0
  -14.3466  -19.5333   24.8390 C   0  0  0  0  0  0  0  0  0  0  0  0
  -14.4450  -20.8683   24.4454 C   0  0  0  0  0  0  0  0  0  0  0  0
  -13.0611  -21.1879   24.1799 C   0  0  0  0  0  0  0  0  0  0  0  0
  -12.2651  -20.0928   24.1336 N   0  0  0  0  0  0  0  0  0  0  0  0
  -12.6117  -10.0686   15.0890 C   0  0  0  0  0  0  0  0  0  0  0  0
  -13.1207   -9.2218   15.4775 O   0  0  0  0  0  0  0  0  0  0  0  0
  -11.9854   -9.6241   13.6340 C   0  0  0  0  0  0  0  0  0  0  0  0
  -12.4146   -7.7582   13.7243 C   0  0  0  0  0  0  0  0  0  0  0  0
  -11.7585   -6.2142   14.3051 C   0  0  0  0  0  0  0  0  0  0  0  0
  -12.5615   -5.3292   14.8901 N   0  0  0  0  0  0  0  0  0  0  0  0
  -11.7821   -4.3583   15.4839 C   0  0  0  0  0  0  0  0  0  0  0  0
  -10.4659   -4.5991   15.2313 C   0  0  0  0  0  0  0  0  0  0  0  0
  -10.4668   -5.7390   14.4834 N   0  0  0  0  0  0  0  0  0  0  0  0
  -15.4142  -10.1973   18.0361 H   0  0  0  0  0  0  0  0  0  0  0  0
  -14.1210   -9.4940   18.9255 H   0  0  0  0  0  0  0  0  0  0  0  0
  -14.8285  -10.8840   19.5077 H   0  0  0  0  0  0  0  0  0  0  0  0
  -12.7155  -10.8193   18.3195 H   0  0  0  0  0  0  0  0  0  0  0  0
  -14.0696  -12.1782   17.6017 H   0  0  0  0  0  0  0  0  0  0  0  0
  -10.5546  -12.1924   17.1365 H   0  0  0  0  0  0  0  0  0  0  0  0
  -10.7939  -11.0340   18.3173 H   0  0  0  0  0  0  0  0  0  0  0  0
   -9.3832  -13.7088   19.1238 H   0  0  0  0  0  0  0  0  0  0  0  0
   -9.9656  -13.4757   19.9740 H   0  0  0  0  0  0  0  0  0  0  0  0
  -12.2736  -15.9097   19.5880 H   0  0  0  0  0  0  0  0  0  0  0  0
  -13.4833  -16.7151   22.2103 H   0  0  0  0  0  0  0  0  0  0  0  0
  -13.0623  -16.3020   24.0708 H   0  0  0  0  0  0  0  0  0  0  0  0
  -14.7823  -18.9448   25.6253 H   0  0  0  0  0  0  0  0  0  0  0  0
  -15.2000  -21.5845   24.7408 H   0  0  0  0  0  0  0  0  0  0  0  0
  -12.6022  -22.1638   24.0952 H   0  0  0  0  0  0  0  0  0  0  0  0
  -12.7065   -9.5134   12.8347 H   0  0  0  0  0  0  0  0  0  0  0  0
  -10.9066   -9.4916   13.5027 H   0  0  0  0  0  0  0  0  0  0  0  0
  -12.1860   -7.8262   14.7485 H   0  0  0  0  0  0  0  0  0  0  0  0
  -13.4367   -7.6005   13.3881 H   0  0  0  0  0  0  0  0  0  0  0  0
  -12.2230   -3.5601   16.0665 H   0  0  0  0  0  0  0  0  0  0  0  0
   -9.5547   -4.1164   15.5492 H   0  0  0  0  0  0  0  0  0  0  0  0
   -9.6236   -6.2384   14.3096 H   0  0  0  0  0  0  0  0  0  0  0  0
  1  2  1  0
  2  3  1  0
  3  4  1  0
  4  5  1  0
  5  6  1  0
  6  7  1  0
  7  8  2  0
  7  9  1  0
  9 10  1  0
 10 11  1  0
 11 12  2  0
 12 13  1  0
 13 14  2  0
  3 15  1  0
 15 16  2  0
 15 17  1  0
 17 18  1  0
 18 19  1  0
 19 20  2  0
 20 21  1  0
 21 22  2  0
 22 23  1  0
 14 10  1  0
 23 19  1  0
  1 24  1  0
  1 25  1  0
  1 26  1  0
  2 27  1  0
  2 28  1  0
  4 29  1  0
  4 30  1  0
  5 31  1  0
  5 32  1  0
  6 33  1  0
  9 34  1  0
  9 35  1  0
 11 36  1  0
 12 37  1  0
 13 38  1  0
 17 39  1  0
 17 40  1  0
 18 41  1  0
 18 42  1  0
 21 43  1  0
 22 44  1  0
 23 45  1  0
M  END
>  <Energy>  (692) 
1462.8154199941639

>  <compound_id>  (692) 
17985

>  <target_id>  (692) 
1

>  <reference_id>  (692) 
64

>  <inspiration_ids>  (692) 
[99, 64]

>  <energy_score>  (692) 
1418.9406765557176

>  <distance_score>  (692) 
9.569028518424131

>  <path>  (692) 
/opt/xchem-fragalysis-2/maxwin/BulkDock/SCRATCH/511025/C17985-P64/C17985-P64.minimised.mol

>  <scratch_subdir>  (692) 
/opt/xchem-fragalysis-2/maxwin/BulkDock/SCRATCH/511025/C17985-P64

>  <fragmenstein_runtime>  (692) 
35.77987790107727

>  <fragmenstein_outcome>  (692) 
too moved

>  <fragmenstein_mode>  (692) 
expansion

>  <fragmenstein_error>  (692) 


$$$$
C48741-P99
     RDKit          3D

 46 47  0  0  0  0  0  0  0  0999 V2000
   -6.0207  -10.0861   13.5672 C   0  0  0  0  0  0  0  0  0  0  0  0
   -7.6067   -9.6975   13.9226 C   0  0  0  0  0  0  0  0  0  0  0  0
   -8.4601  -10.8684   14.3955 C   0  0  0  0  0  0  0  0  0  0  0  0
   -9.2183  -11.3543   13.3757 C   0  0  0  0  0  0  0  0  0  0  0  0
   -9.2073  -12.6630   13.5269 N   0  0  0  0  0  0  0  0  0  0  0  0
   -9.0862  -13.0536   14.7745 N   0  0  0  0  0  0  0  0  0  0  0  0
   -8.4659  -12.0739   15.7066 C   0  0  0  0  0  0  0  0  0  0  0  0
   -7.6954  -12.3397   17.5365 C   0  0  0  0  0  0  0  0  0  0  0  0
   -6.8425  -11.6321   17.9800 O   0  0  0  0  0  0  0  0  0  0  0  0
   -8.3938  -13.3681   18.1290 N   0  0  0  0  0  0  0  0  0  0  0  0
   -9.5934  -12.8590   18.7241 C   0  0  0  0  0  0  0  0  0  0  0  0
  -10.5545  -11.8547   17.9828 C   0  0  0  0  0  0  0  0  0  0  0  0
   -8.2381  -14.2716   19.9187 C   0  0  0  0  0  0  0  0  0  0  0  0
   -7.7094  -16.1960   20.9357 C   0  0  0  0  0  0  0  0  0  0  0  0
   -8.3116  -18.0154   21.6131 N   0  0  0  0  0  0  0  0  0  0  0  0
   -9.0754  -18.5589   23.2380 C   0  0  0  0  0  0  0  0  0  0  0  0
   -9.1747  -17.8041   24.1867 O   0  0  0  0  0  0  0  0  0  0  0  0
  -10.0142  -20.3686   23.3760 C   0  0  0  0  0  0  0  0  0  0  0  0
  -11.1327  -20.6948   24.2935 O   0  0  0  0  0  0  0  0  0  0  0  0
  -10.4239  -21.3780   22.2366 C   0  0  0  0  0  0  0  0  0  0  0  0
   -9.8392  -21.9224   21.1325 C   0  0  0  0  0  0  0  0  0  0  0  0
  -10.8575  -22.5894   20.4950 N   0  0  0  0  0  0  0  0  0  0  0  0
  -12.0223  -22.3687   21.1418 C   0  0  0  0  0  0  0  0  0  0  0  0
  -11.7954  -21.7361   22.2560 N   0  0  0  0  0  0  0  0  0  0  0  0
   -5.8599  -11.0815   13.1527 H   0  0  0  0  0  0  0  0  0  0  0  0
   -5.4730   -9.2899   13.0459 H   0  0  0  0  0  0  0  0  0  0  0  0
   -5.4107  -10.3429   14.4011 H   0  0  0  0  0  0  0  0  0  0  0  0
   -8.1109   -9.3385   13.0209 H   0  0  0  0  0  0  0  0  0  0  0  0
   -7.6981   -8.7699   14.4142 H   0  0  0  0  0  0  0  0  0  0  0  0
   -9.6210  -10.8751   12.5153 H   0  0  0  0  0  0  0  0  0  0  0  0
   -9.5276  -13.3580   12.8626 H   0  0  0  0  0  0  0  0  0  0  0  0
  -10.0035  -13.6035   19.3699 H   0  0  0  0  0  0  0  0  0  0  0  0
  -10.3729  -13.3656   18.2131 H   0  0  0  0  0  0  0  0  0  0  0  0
  -11.6093  -11.8499   18.1923 H   0  0  0  0  0  0  0  0  0  0  0  0
  -10.4021  -10.8638   18.3672 H   0  0  0  0  0  0  0  0  0  0  0  0
  -10.7453  -12.0631   16.9311 H   0  0  0  0  0  0  0  0  0  0  0  0
   -8.8638  -13.6362   20.5375 H   0  0  0  0  0  0  0  0  0  0  0  0
   -8.9282  -14.9627   19.3697 H   0  0  0  0  0  0  0  0  0  0  0  0
   -6.8464  -16.6864   20.4379 H   0  0  0  0  0  0  0  0  0  0  0  0
   -8.5902  -16.2732   20.3308 H   0  0  0  0  0  0  0  0  0  0  0  0
   -8.2465  -18.8221   20.9915 H   0  0  0  0  0  0  0  0  0  0  0  0
  -10.7753  -19.7330   23.0463 H   0  0  0  0  0  0  0  0  0  0  0  0
  -11.8116  -21.2164   23.8022 H   0  0  0  0  0  0  0  0  0  0  0  0
   -8.8266  -21.9446   20.7541 H   0  0  0  0  0  0  0  0  0  0  0  0
  -10.6998  -23.3083   19.8095 H   0  0  0  0  0  0  0  0  0  0  0  0
  -12.9660  -22.7365   20.7812 H   0  0  0  0  0  0  0  0  0  0  0  0
  1  2  1  0
  2  3  1  0
  3  4  2  0
  4  5  1  0
  5  6  1  0
  6  7  2  0
  7  8  1  0
  8  9  2  0
  8 10  1  0
 10 11  1  0
 11 12  1  0
 10 13  1  0
 13 14  1  0
 14 15  1  0
 15 16  1  0
 16 17  2  0
 16 18  1  0
 18 19  1  0
 18 20  1  0
 20 21  2  0
 21 22  1  0
 22 23  1  0
 23 24  2  0
  7  3  1  0
 24 20  1  0
  1 25  1  0
  1 26  1  0
  1 27  1  0
  2 28  1  0
  2 29  1  0
  4 30  1  0
  5 31  1  0
 11 32  1  0
 11 33  1  0
 12 34  1  0
 12 35  1  0
 12 36  1  0
 13 37  1  0
 13 38  1  0
 14 39  1  0
 14 40  1  0
 15 41  1  0
 18 42  1  0
 19 43  1  0
 21 44  1  0
 22 45  1  0
 23 46  1  0
M  END
>  <Energy>  (693) 
1026.3931661296799

>  <compound_id>  (693) 
48741

>  <target_id>  (693) 
1

>  <reference_id>  (693) 
99

>  <inspiration_ids>  (693) 
[99, 64]

>  <energy_score>  (693) 
882.5048266468477

>  <distance_score>  (693) 
9.576195213142427

>  <path>  (693) 
/opt/xchem-fragalysis-2/maxwin/BulkDock/SCRATCH/511025/C48741-P99/C48741-P99.minimised.mol

>  <scratch_subdir>  (693) 
/opt/xchem-fragalysis-2/maxwin/BulkDock/SCRATCH/511025/C48741-P99

>  <fragmenstein_runtime>  (693) 
46.1661913394928

>  <fragmenstein_outcome>  (693) 
too moved

>  <fragmenstein_mode>  (693) 
expansion

>  <fragmenstein_error>  (693) 


$$$$
C48741-P64
     RDKit          3D

 46 47  0  0  0  0  0  0  0  0999 V2000
   -5.6901   -8.2258   11.7371 C   0  0  0  0  0  0  0  0  0  0  0  0
   -6.7319   -9.0751   13.2605 C   0  0  0  0  0  0  0  0  0  0  0  0
   -8.2748  -10.1010   13.2441 C   0  0  0  0  0  0  0  0  0  0  0  0
   -9.4954   -9.6483   13.5390 C   0  0  0  0  0  0  0  0  0  0  0  0
   -9.9693  -10.1462   12.3807 N   0  0  0  0  0  0  0  0  0  0  0  0
   -9.9304  -11.5482   12.1960 N   0  0  0  0  0  0  0  0  0  0  0  0
   -8.6781  -11.7503   12.5321 C   0  0  0  0  0  0  0  0  0  0  0  0
   -7.8438  -12.7406   13.1959 C   0  0  0  0  0  0  0  0  0  0  0  0
   -6.7176  -12.4261   13.1057 O   0  0  0  0  0  0  0  0  0  0  0  0
   -8.4985  -13.9030   13.9986 N   0  0  0  0  0  0  0  0  0  0  0  0
   -8.8183  -13.5132   15.1009 C   0  0  0  0  0  0  0  0  0  0  0  0
   -9.6370  -12.3336   14.8785 C   0  0  0  0  0  0  0  0  0  0  0  0
   -7.6552  -15.3953   15.0793 C   0  0  0  0  0  0  0  0  0  0  0  0
   -7.9072  -16.6243   16.7653 C   0  0  0  0  0  0  0  0  0  0  0  0
   -7.0344  -17.6339   18.1916 N   0  0  0  0  0  0  0  0  0  0  0  0
   -7.0869  -19.2201   18.5672 C   0  0  0  0  0  0  0  0  0  0  0  0
   -7.7109  -20.1458   18.0399 O   0  0  0  0  0  0  0  0  0  0  0  0
   -6.2490  -19.4896   19.8963 C   0  0  0  0  0  0  0  0  0  0  0  0
   -4.8454  -19.5180   19.6230 O   0  0  0  0  0  0  0  0  0  0  0  0
   -6.6944  -20.7516   20.6834 C   0  0  0  0  0  0  0  0  0  0  0  0
   -7.7196  -21.6541   20.4649 C   0  0  0  0  0  0  0  0  0  0  0  0
   -7.7390  -22.5066   21.5327 N   0  0  0  0  0  0  0  0  0  0  0  0
   -6.6740  -22.1796   22.3185 C   0  0  0  0  0  0  0  0  0  0  0  0
   -6.0238  -21.1327   21.8469 N   0  0  0  0  0  0  0  0  0  0  0  0
   -6.2115   -8.1268   10.7630 H   0  0  0  0  0  0  0  0  0  0  0  0
   -5.3028   -7.1958   11.7627 H   0  0  0  0  0  0  0  0  0  0  0  0
   -4.7632   -8.7861   11.5312 H   0  0  0  0  0  0  0  0  0  0  0  0
   -7.3297   -8.3157   13.7773 H   0  0  0  0  0  0  0  0  0  0  0  0
   -6.0388   -9.8181   13.6856 H   0  0  0  0  0  0  0  0  0  0  0  0
   -9.8173   -8.7920   14.0806 H   0  0  0  0  0  0  0  0  0  0  0  0
  -10.3234   -9.5929   11.6134 H   0  0  0  0  0  0  0  0  0  0  0  0
   -9.5798  -14.2461   14.9029 H   0  0  0  0  0  0  0  0  0  0  0  0
   -8.1677  -13.2987   16.0707 H   0  0  0  0  0  0  0  0  0  0  0  0
  -10.5567  -12.3001   15.4790 H   0  0  0  0  0  0  0  0  0  0  0  0
   -9.9497  -12.5302   13.9122 H   0  0  0  0  0  0  0  0  0  0  0  0
   -8.9799  -11.4948   14.8751 H   0  0  0  0  0  0  0  0  0  0  0  0
   -6.9417  -14.8345   15.6677 H   0  0  0  0  0  0  0  0  0  0  0  0
   -7.2264  -16.0305   14.3189 H   0  0  0  0  0  0  0  0  0  0  0  0
   -8.4454  -17.4532   16.3868 H   0  0  0  0  0  0  0  0  0  0  0  0
   -8.4915  -16.0893   17.5012 H   0  0  0  0  0  0  0  0  0  0  0  0
   -6.4932  -17.1526   18.8748 H   0  0  0  0  0  0  0  0  0  0  0  0
   -6.4209  -18.6411   20.5689 H   0  0  0  0  0  0  0  0  0  0  0  0
   -4.5107  -20.2303   20.2030 H   0  0  0  0  0  0  0  0  0  0  0  0
   -8.4733  -21.7260   19.6933 H   0  0  0  0  0  0  0  0  0  0  0  0
   -8.4294  -23.2375   21.6863 H   0  0  0  0  0  0  0  0  0  0  0  0
   -6.4304  -22.7288   23.2183 H   0  0  0  0  0  0  0  0  0  0  0  0
  1  2  1  0
  2  3  1  0
  3  4  2  0
  4  5  1  0
  5  6  1  0
  6  7  2  0
  7  8  1  0
  8  9  2  0
  8 10  1  0
 10 11  1  0
 11 12  1  0
 10 13  1  0
 13 14  1  0
 14 15  1  0
 15 16  1  0
 16 17  2  0
 16 18  1  0
 18 19  1  0
 18 20  1  0
 20 21  2  0
 21 22  1  0
 22 23  1  0
 23 24  2  0
  7  3  1  0
 24 20  1  0
  1 25  1  0
  1 26  1  0
  1 27  1  0
  2 28  1  0
  2 29  1  0
  4 30  1  0
  5 31  1  0
 11 32  1  0
 11 33  1  0
 12 34  1  0
 12 35  1  0
 12 36  1  0
 13 37  1  0
 13 38  1  0
 14 39  1  0
 14 40  1  0
 15 41  1  0
 18 42  1  0
 19 43  1  0
 21 44  1  0
 22 45  1  0
 23 46  1  0
M  END
>  <Energy>  (694) 
814.13912493430166

>  <compound_id>  (694) 
48741

>  <target_id>  (694) 
1

>  <reference_id>  (694) 
64

>  <inspiration_ids>  (694) 
[99, 64]

>  <energy_score>  (694) 
670.250785451472

>  <distance_score>  (694) 
9.652631608488008

>  <path>  (694) 
/opt/xchem-fragalysis-2/maxwin/BulkDock/SCRATCH/511025/C48741-P64/C48741-P64.minimised.mol

>  <scratch_subdir>  (694) 
/opt/xchem-fragalysis-2/maxwin/BulkDock/SCRATCH/511025/C48741-P64

>  <fragmenstein_runtime>  (694) 
29.718568563461304

>  <fragmenstein_outcome>  (694) 
too moved

>  <fragmenstein_mode>  (694) 
expansion

>  <fragmenstein_error>  (694) 


$$$$
C48742-P99
     RDKit          3D

 37 39  0  0  0  0  0  0  0  0999 V2000
   -6.9025   -8.7326   13.2168 O   0  0  0  0  0  0  0  0  0  0  0  0
   -6.7743   -9.2792   12.1902 C   0  0  0  0  0  0  0  0  0  0  0  0
   -5.6440   -8.9059   11.2951 C   0  0  0  0  0  0  0  0  0  0  0  0
   -5.0476   -7.6878   11.3892 C   0  0  0  0  0  0  0  0  0  0  0  0
   -3.6902   -7.5986   11.0536 C   0  0  0  0  0  0  0  0  0  0  0  0
   -3.0560   -6.6175   10.3824 C   0  0  0  0  0  0  0  0  0  0  0  0
   -1.7677   -7.0845   10.2793 N   0  0  0  0  0  0  0  0  0  0  0  0
   -1.6772   -8.2820   10.9117 C   0  0  0  0  0  0  0  0  0  0  0  0
   -2.8430   -8.6261   11.3978 N   0  0  0  0  0  0  0  0  0  0  0  0
   -7.6639  -10.3595   11.5034 N   0  0  0  0  0  0  0  0  0  0  0  0
   -8.8752  -10.8861   11.8788 C   0  0  0  0  0  0  0  0  0  0  0  0
   -9.6799  -10.3275   12.8735 C   0  0  0  0  0  0  0  0  0  0  0  0
  -10.8366  -10.9725   13.0148 N   0  0  0  0  0  0  0  0  0  0  0  0
  -10.6057  -12.1773   12.4199 N   0  0  0  0  0  0  0  0  0  0  0  0
  -11.4956  -13.3489   12.8018 C   0  0  0  0  0  0  0  0  0  0  0  0
  -11.0120  -14.8663   13.1742 C   0  0  0  0  0  0  0  0  0  0  0  0
  -12.3223  -15.5722   13.7098 C   0  0  0  0  0  0  0  0  0  0  0  0
  -13.1801  -14.4678   14.2992 C   0  0  0  0  0  0  0  0  0  0  0  0
  -12.3769  -13.1671   14.1144 C   0  0  0  0  0  0  0  0  0  0  0  0
   -9.5905  -11.9914   11.4511 C   0  0  0  0  0  0  0  0  0  0  0  0
   -5.1595   -9.7288   10.7804 H   0  0  0  0  0  0  0  0  0  0  0  0
   -5.4700   -6.9014   12.0036 H   0  0  0  0  0  0  0  0  0  0  0  0
   -3.4208   -5.7296    9.8964 H   0  0  0  0  0  0  0  0  0  0  0  0
   -1.0538   -6.6415    9.7133 H   0  0  0  0  0  0  0  0  0  0  0  0
   -0.7623   -8.8562   10.9643 H   0  0  0  0  0  0  0  0  0  0  0  0
   -7.3040  -10.5566   10.5800 H   0  0  0  0  0  0  0  0  0  0  0  0
   -9.4703   -9.4893   13.5184 H   0  0  0  0  0  0  0  0  0  0  0  0
  -12.1714  -13.4209   11.9377 H   0  0  0  0  0  0  0  0  0  0  0  0
  -10.1370  -14.8063   13.8147 H   0  0  0  0  0  0  0  0  0  0  0  0
  -10.6776  -15.3594   12.2537 H   0  0  0  0  0  0  0  0  0  0  0  0
  -12.3246  -16.5004   14.2544 H   0  0  0  0  0  0  0  0  0  0  0  0
  -12.8405  -15.8921   12.7902 H   0  0  0  0  0  0  0  0  0  0  0  0
  -14.0708  -14.3860   13.6576 H   0  0  0  0  0  0  0  0  0  0  0  0
  -13.6147  -14.5307   15.2812 H   0  0  0  0  0  0  0  0  0  0  0  0
  -13.0700  -12.3280   13.9777 H   0  0  0  0  0  0  0  0  0  0  0  0
  -11.7258  -12.8863   14.9432 H   0  0  0  0  0  0  0  0  0  0  0  0
   -9.3924  -12.7655   10.7263 H   0  0  0  0  0  0  0  0  0  0  0  0
  1  2  2  0
  2  3  1  0
  3  4  2  3
  4  5  1  0
  5  6  2  0
  6  7  1  0
  7  8  1  0
  8  9  2  0
  2 10  1  0
 10 11  1  0
 11 12  1  0
 12 13  2  0
 13 14  1  0
 14 15  1  0
 15 16  1  0
 16 17  1  0
 17 18  1  0
 18 19  1  0
 14 20  1  0
  9  5  1  0
 20 11  2  0
 19 15  1  0
  3 21  1  0
  4 22  1  0
  6 23  1  0
  7 24  1  0
  8 25  1  0
 10 26  1  0
 12 27  1  0
 15 28  1  0
 16 29  1  0
 16 30  1  0
 17 31  1  0
 17 32  1  0
 18 33  1  0
 18 34  1  0
 19 35  1  0
 19 36  1  0
 20 37  1  0
M  END
>  <Energy>  (695) 
44.883223313304789

>  <compound_id>  (695) 
48742

>  <target_id>  (695) 
1

>  <reference_id>  (695) 
99

>  <inspiration_ids>  (695) 
[99, 64]

>  <energy_score>  (695) 
19.491564119869736

>  <distance_score>  (695) 
13.259172794746894

>  <path>  (695) 
/opt/xchem-fragalysis-2/maxwin/BulkDock/SCRATCH/511025/C48742-P99/C48742-P99.minimised.mol

>  <scratch_subdir>  (695) 
/opt/xchem-fragalysis-2/maxwin/BulkDock/SCRATCH/511025/C48742-P99

>  <fragmenstein_runtime>  (695) 
25.436559677124023

>  <fragmenstein_outcome>  (695) 
too moved

>  <fragmenstein_mode>  (695) 
expansion

>  <fragmenstein_error>  (695) 


$$$$
C48742-P64
     RDKit          3D

 37 39  0  0  0  0  0  0  0  0999 V2000
  -10.2044  -12.1135    7.0628 O   0  0  0  0  0  0  0  0  0  0  0  0
  -10.3694  -11.0656    7.5506 C   0  0  0  0  0  0  0  0  0  0  0  0
  -11.1567   -9.9458    6.9804 C   0  0  0  0  0  0  0  0  0  0  0  0
  -11.2887   -9.1694    5.8982 C   0  0  0  0  0  0  0  0  0  0  0  0
  -10.8802   -9.1674    4.5469 C   0  0  0  0  0  0  0  0  0  0  0  0
  -10.5579  -10.2882    3.8366 C   0  0  0  0  0  0  0  0  0  0  0  0
  -10.7088   -9.9585    2.5160 N   0  0  0  0  0  0  0  0  0  0  0  0
  -11.1472   -8.6697    2.4679 C   0  0  0  0  0  0  0  0  0  0  0  0
  -11.3007   -8.1827    3.6760 N   0  0  0  0  0  0  0  0  0  0  0  0
   -9.9401  -10.5228    8.9491 N   0  0  0  0  0  0  0  0  0  0  0  0
   -9.3426  -11.1550    9.9975 C   0  0  0  0  0  0  0  0  0  0  0  0
   -8.8135  -10.5595   11.1521 C   0  0  0  0  0  0  0  0  0  0  0  0
   -8.5026  -11.4660   12.0925 N   0  0  0  0  0  0  0  0  0  0  0  0
   -8.8956  -12.6730   11.5698 N   0  0  0  0  0  0  0  0  0  0  0  0
   -8.6603  -13.9925   12.2595 C   0  0  0  0  0  0  0  0  0  0  0  0
   -8.1553  -14.1394   13.7506 C   0  0  0  0  0  0  0  0  0  0  0  0
   -7.9048  -15.6658   13.8844 C   0  0  0  0  0  0  0  0  0  0  0  0
   -9.0074  -16.3234   13.0423 C   0  0  0  0  0  0  0  0  0  0  0  0
   -9.7753  -15.1186   12.4543 C   0  0  0  0  0  0  0  0  0  0  0  0
   -9.2446  -12.4966   10.2248 C   0  0  0  0  0  0  0  0  0  0  0  0
  -11.9519   -9.7620    7.7082 H   0  0  0  0  0  0  0  0  0  0  0  0
  -12.2575   -8.6875    5.9630 H   0  0  0  0  0  0  0  0  0  0  0  0
  -10.3321  -11.3006    4.1425 H   0  0  0  0  0  0  0  0  0  0  0  0
  -10.5596  -10.5685    1.7256 H   0  0  0  0  0  0  0  0  0  0  0  0
  -11.3550   -8.1507    1.5429 H   0  0  0  0  0  0  0  0  0  0  0  0
  -10.1726   -9.5417    9.0173 H   0  0  0  0  0  0  0  0  0  0  0  0
   -8.6575   -9.5178   11.3722 H   0  0  0  0  0  0  0  0  0  0  0  0
   -7.8766  -14.4172   11.6116 H   0  0  0  0  0  0  0  0  0  0  0  0
   -8.9360  -13.7636   14.4081 H   0  0  0  0  0  0  0  0  0  0  0  0
   -7.2825  -13.5053   13.8915 H   0  0  0  0  0  0  0  0  0  0  0  0
   -7.7412  -15.8920   14.9271 H   0  0  0  0  0  0  0  0  0  0  0  0
   -6.9799  -15.9410   13.3593 H   0  0  0  0  0  0  0  0  0  0  0  0
   -9.7081  -17.0459   13.4364 H   0  0  0  0  0  0  0  0  0  0  0  0
   -8.5220  -16.8535   12.2103 H   0  0  0  0  0  0  0  0  0  0  0  0
  -10.2268  -15.3751   11.4903 H   0  0  0  0  0  0  0  0  0  0  0  0
  -10.5747  -14.7668   13.1155 H   0  0  0  0  0  0  0  0  0  0  0  0
   -9.5108  -13.3545    9.6236 H   0  0  0  0  0  0  0  0  0  0  0  0
  1  2  2  0
  2  3  1  0
  3  4  2  3
  4  5  1  0
  5  6  2  0
  6  7  1  0
  7  8  1  0
  8  9  2  0
  2 10  1  0
 10 11  1  0
 11 12  1  0
 12 13  2  0
 13 14  1  0
 14 15  1  0
 15 16  1  0
 16 17  1  0
 17 18  1  0
 18 19  1  0
 14 20  1  0
  9  5  1  0
 20 11  2  0
 19 15  1  0
  3 21  1  0
  4 22  1  0
  6 23  1  0
  7 24  1  0
  8 25  1  0
 10 26  1  0
 12 27  1  0
 15 28  1  0
 16 29  1  0
 16 30  1  0
 17 31  1  0
 17 32  1  0
 18 33  1  0
 18 34  1  0
 19 35  1  0
 19 36  1  0
 20 37  1  0
M  END
>  <Energy>  (696) 
56.483822038259113

>  <compound_id>  (696) 
48742

>  <target_id>  (696) 
1

>  <reference_id>  (696) 
64

>  <inspiration_ids>  (696) 
[99, 64]

>  <energy_score>  (696) 
31.092162844820336

>  <distance_score>  (696) 
13.659396490720985

>  <path>  (696) 
/opt/xchem-fragalysis-2/maxwin/BulkDock/SCRATCH/511025/C48742-P64/C48742-P64.minimised.mol

>  <scratch_subdir>  (696) 
/opt/xchem-fragalysis-2/maxwin/BulkDock/SCRATCH/511025/C48742-P64

>  <fragmenstein_runtime>  (696) 
26.914281845092773

>  <fragmenstein_outcome>  (696) 
too moved

>  <fragmenstein_mode>  (696) 
expansion

>  <fragmenstein_error>  (696) 


$$$$
C17987-P99
     RDKit          3D

 46 48  0  0  0  0  0  0  0  0999 V2000
  -12.4307  -14.8828   26.5634 O   0  0  0  0  0  0  0  0  0  0  0  0
  -11.6192  -14.6339   27.4172 C   0  0  0  0  0  0  0  0  0  0  0  0
  -11.3623  -12.9942   27.7777 C   0  0  0  0  0  0  0  0  0  0  0  0
  -11.3681  -11.6630   26.1891 S   0  0  0  0  0  0  0  0  0  0  0  0
  -11.7854   -9.9640   26.9558 C   0  0  0  0  0  0  0  0  0  0  0  0
  -11.4073   -8.5321   26.4088 C   0  0  0  0  0  0  0  0  0  0  0  0
  -10.8598   -7.5874   27.1683 N   0  0  0  0  0  0  0  0  0  0  0  0
  -10.7602   -6.4352   26.4245 C   0  0  0  0  0  0  0  0  0  0  0  0
  -11.2615   -6.6430   25.1751 C   0  0  0  0  0  0  0  0  0  0  0  0
  -11.5524   -7.9811   25.1405 N   0  0  0  0  0  0  0  0  0  0  0  0
  -10.7413  -15.5517   28.2273 N   0  0  0  0  0  0  0  0  0  0  0  0
  -10.5209  -17.1480   28.1445 C   0  0  0  0  0  0  0  0  0  0  0  0
  -11.7696  -18.1476   28.6038 C   0  0  0  0  0  0  0  0  0  0  0  0
  -12.0265  -20.1162   29.0391 C   0  0  0  0  0  0  0  0  0  0  0  0
  -11.3003  -20.9662   29.9855 C   0  0  0  0  0  0  0  0  0  0  0  0
  -11.3919  -22.2636   29.7291 C   0  0  0  0  0  0  0  0  0  0  0  0
  -11.7501  -22.2354   28.4877 N   0  0  0  0  0  0  0  0  0  0  0  0
  -11.2590  -23.0073   27.4154 C   0  0  0  0  0  0  0  0  0  0  0  0
  -10.0374  -23.8779   27.6912 C   0  0  0  0  0  0  0  0  0  0  0  0
  -10.0561  -24.9297   26.6347 C   0  0  0  0  0  0  0  0  0  0  0  0
  -11.2915  -24.6696   25.8912 C   0  0  0  0  0  0  0  0  0  0  0  0
  -12.2188  -23.8978   26.6995 C   0  0  0  0  0  0  0  0  0  0  0  0
  -12.3842  -21.1240   28.2078 N   0  0  0  0  0  0  0  0  0  0  0  0
  -10.3844  -12.8707   28.2477 H   0  0  0  0  0  0  0  0  0  0  0  0
  -12.1727  -12.6719   28.4361 H   0  0  0  0  0  0  0  0  0  0  0  0
  -11.3251  -10.0137   27.9507 H   0  0  0  0  0  0  0  0  0  0  0  0
  -12.8690   -9.9645   27.1202 H   0  0  0  0  0  0  0  0  0  0  0  0
  -10.3679   -5.5225   26.8539 H   0  0  0  0  0  0  0  0  0  0  0  0
  -11.4010   -5.9810   24.3437 H   0  0  0  0  0  0  0  0  0  0  0  0
  -11.6530   -8.5021   24.2910 H   0  0  0  0  0  0  0  0  0  0  0  0
  -10.1152  -14.9955   28.7998 H   0  0  0  0  0  0  0  0  0  0  0  0
  -10.2299  -17.2687   27.1038 H   0  0  0  0  0  0  0  0  0  0  0  0
   -9.6532  -17.3158   28.7830 H   0  0  0  0  0  0  0  0  0  0  0  0
  -11.9149  -17.4908   29.4751 H   0  0  0  0  0  0  0  0  0  0  0  0
  -12.5882  -17.6967   28.0633 H   0  0  0  0  0  0  0  0  0  0  0  0
  -10.7426  -20.7512   30.8566 H   0  0  0  0  0  0  0  0  0  0  0  0
  -11.0034  -23.0031   30.3485 H   0  0  0  0  0  0  0  0  0  0  0  0
  -11.0156  -22.2408   26.6930 H   0  0  0  0  0  0  0  0  0  0  0  0
  -10.0627  -24.3583   28.6468 H   0  0  0  0  0  0  0  0  0  0  0  0
   -9.0839  -23.3652   27.7216 H   0  0  0  0  0  0  0  0  0  0  0  0
   -9.2242  -24.8339   25.9457 H   0  0  0  0  0  0  0  0  0  0  0  0
  -10.1129  -25.9406   27.0281 H   0  0  0  0  0  0  0  0  0  0  0  0
  -11.7639  -25.6158   25.6047 H   0  0  0  0  0  0  0  0  0  0  0  0
  -11.0014  -23.9414   25.1322 H   0  0  0  0  0  0  0  0  0  0  0  0
  -12.7208  -24.6379   27.2921 H   0  0  0  0  0  0  0  0  0  0  0  0
  -12.9350  -23.3797   26.0630 H   0  0  0  0  0  0  0  0  0  0  0  0
  1  2  2  0
  2  3  1  0
  3  4  1  0
  4  5  1  0
  5  6  1  0
  6  7  2  0
  7  8  1  0
  8  9  2  0
  9 10  1  0
  2 11  1  0
 11 12  1  0
 12 13  1  0
 13 14  1  0
 14 15  1  0
 15 16  2  0
 16 17  1  0
 17 18  1  0
 18 19  1  0
 19 20  1  0
 20 21  1  0
 21 22  1  0
 17 23  1  0
 10  6  1  0
 23 14  2  0
 22 18  1  0
  3 24  1  0
  3 25  1  0
  5 26  1  0
  5 27  1  0
  8 28  1  0
  9 29  1  0
 10 30  1  0
 11 31  1  0
 12 32  1  0
 12 33  1  0
 13 34  1  0
 13 35  1  0
 15 36  1  0
 16 37  1  0
 18 38  1  0
 19 39  1  0
 19 40  1  0
 20 41  1  0
 20 42  1  0
 21 43  1  0
 21 44  1  0
 22 45  1  0
 22 46  1  0
M  END
>  <Energy>  (697) 
266.02950771136102

>  <compound_id>  (697) 
17987

>  <target_id>  (697) 
1

>  <reference_id>  (697) 
99

>  <inspiration_ids>  (697) 
[99, 64]

>  <energy_score>  (697) 
188.52255740562066

>  <distance_score>  (697) 
16.368707199789156

>  <path>  (697) 
/opt/xchem-fragalysis-2/maxwin/BulkDock/SCRATCH/511025/C17987-P99/C17987-P99.minimised.mol

>  <scratch_subdir>  (697) 
/opt/xchem-fragalysis-2/maxwin/BulkDock/SCRATCH/511025/C17987-P99

>  <fragmenstein_runtime>  (697) 
53.453264474868774

>  <fragmenstein_outcome>  (697) 
too moved

>  <fragmenstein_mode>  (697) 
expansion

>  <fragmenstein_error>  (697) 


$$$$
C17987-P64
     RDKit          3D

 46 48  0  0  0  0  0  0  0  0999 V2000
  -12.5482  -15.7227   19.7210 O   0  0  0  0  0  0  0  0  0  0  0  0
  -12.4414  -15.3545   20.8406 C   0  0  0  0  0  0  0  0  0  0  0  0
  -11.2626  -13.6288   21.0934 C   0  0  0  0  0  0  0  0  0  0  0  0
   -9.8794  -13.0874   19.1077 S   0  0  0  0  0  0  0  0  0  0  0  0
  -10.6146  -12.2416   16.9832 C   0  0  0  0  0  0  0  0  0  0  0  0
   -9.7180  -12.2619   15.1246 C   0  0  0  0  0  0  0  0  0  0  0  0
   -9.4691  -13.3380   14.3383 N   0  0  0  0  0  0  0  0  0  0  0  0
   -8.9034  -12.9447   13.1289 C   0  0  0  0  0  0  0  0  0  0  0  0
   -8.7223  -11.5943   13.0921 C   0  0  0  0  0  0  0  0  0  0  0  0
   -9.1789  -11.1550   14.3088 N   0  0  0  0  0  0  0  0  0  0  0  0
  -13.2503  -15.9795   22.2207 N   0  0  0  0  0  0  0  0  0  0  0  0
  -14.3336  -17.0149   22.3370 C   0  0  0  0  0  0  0  0  0  0  0  0
  -14.5097  -17.7121   23.7356 C   0  0  0  0  0  0  0  0  0  0  0  0
  -15.0286  -19.1247   23.7066 C   0  0  0  0  0  0  0  0  0  0  0  0
  -14.3181  -20.3444   23.8343 C   0  0  0  0  0  0  0  0  0  0  0  0
  -15.2615  -21.3353   23.7334 C   0  0  0  0  0  0  0  0  0  0  0  0
  -16.4564  -20.6957   23.5879 N   0  0  0  0  0  0  0  0  0  0  0  0
  -17.7590  -21.3154   23.4355 C   0  0  0  0  0  0  0  0  0  0  0  0
  -18.0128  -22.5169   24.3659 C   0  0  0  0  0  0  0  0  0  0  0  0
  -19.4635  -22.4068   24.8347 C   0  0  0  0  0  0  0  0  0  0  0  0
  -20.0986  -21.3568   23.9396 C   0  0  0  0  0  0  0  0  0  0  0  0
  -18.9571  -20.3892   23.6811 C   0  0  0  0  0  0  0  0  0  0  0  0
  -16.3201  -19.3556   23.4520 N   0  0  0  0  0  0  0  0  0  0  0  0
  -11.1562  -12.7287   21.6601 H   0  0  0  0  0  0  0  0  0  0  0  0
  -10.9150  -13.9682   22.0677 H   0  0  0  0  0  0  0  0  0  0  0  0
  -11.3159  -11.5176   17.2655 H   0  0  0  0  0  0  0  0  0  0  0  0
  -11.1836  -12.9196   16.3936 H   0  0  0  0  0  0  0  0  0  0  0  0
   -8.6657  -13.6781   12.3700 H   0  0  0  0  0  0  0  0  0  0  0  0
   -8.3379  -10.9199   12.3410 H   0  0  0  0  0  0  0  0  0  0  0  0
   -9.3042  -10.1754   14.5073 H   0  0  0  0  0  0  0  0  0  0  0  0
  -12.8978  -15.5279   23.0551 H   0  0  0  0  0  0  0  0  0  0  0  0
  -15.2057  -16.3530   22.4264 H   0  0  0  0  0  0  0  0  0  0  0  0
  -14.7012  -17.4436   21.3934 H   0  0  0  0  0  0  0  0  0  0  0  0
  -15.2154  -17.1187   24.3365 H   0  0  0  0  0  0  0  0  0  0  0  0
  -13.5769  -17.6232   24.2794 H   0  0  0  0  0  0  0  0  0  0  0  0
  -13.2584  -20.4935   23.9945 H   0  0  0  0  0  0  0  0  0  0  0  0
  -15.1748  -22.4065   23.8168 H   0  0  0  0  0  0  0  0  0  0  0  0
  -17.7933  -21.6643   22.3940 H   0  0  0  0  0  0  0  0  0  0  0  0
  -17.3445  -22.5379   25.2323 H   0  0  0  0  0  0  0  0  0  0  0  0
  -17.8572  -23.4530   23.8171 H   0  0  0  0  0  0  0  0  0  0  0  0
  -19.4863  -22.0700   25.8782 H   0  0  0  0  0  0  0  0  0  0  0  0
  -19.9886  -23.3654   24.7842 H   0  0  0  0  0  0  0  0  0  0  0  0
  -20.9581  -20.8727   24.4118 H   0  0  0  0  0  0  0  0  0  0  0  0
  -20.4331  -21.8110   22.9995 H   0  0  0  0  0  0  0  0  0  0  0  0
  -18.7996  -19.7535   24.5611 H   0  0  0  0  0  0  0  0  0  0  0  0
  -19.1591  -19.7374   22.8251 H   0  0  0  0  0  0  0  0  0  0  0  0
  1  2  2  0
  2  3  1  0
  3  4  1  0
  4  5  1  0
  5  6  1  0
  6  7  2  0
  7  8  1  0
  8  9  2  0
  9 10  1  0
  2 11  1  0
 11 12  1  0
 12 13  1  0
 13 14  1  0
 14 15  1  0
 15 16  2  0
 16 17  1  0
 17 18  1  0
 18 19  1  0
 19 20  1  0
 20 21  1  0
 21 22  1  0
 17 23  1  0
 10  6  1  0
 23 14  2  0
 22 18  1  0
  3 24  1  0
  3 25  1  0
  5 26  1  0
  5 27  1  0
  8 28  1  0
  9 29  1  0
 10 30  1  0
 11 31  1  0
 12 32  1  0
 12 33  1  0
 13 34  1  0
 13 35  1  0
 15 36  1  0
 16 37  1  0
 18 38  1  0
 19 39  1  0
 19 40  1  0
 20 41  1  0
 20 42  1  0
 21 43  1  0
 21 44  1  0
 22 45  1  0
 22 46  1  0
M  END
>  <Energy>  (698) 
504.22607062739701

>  <compound_id>  (698) 
17987

>  <target_id>  (698) 
1

>  <reference_id>  (698) 
64

>  <inspiration_ids>  (698) 
[99, 64]

>  <energy_score>  (698) 
426.7191203216511

>  <distance_score>  (698) 
12.252124845899509

>  <path>  (698) 
/opt/xchem-fragalysis-2/maxwin/BulkDock/SCRATCH/511025/C17987-P64/C17987-P64.minimised.mol

>  <scratch_subdir>  (698) 
/opt/xchem-fragalysis-2/maxwin/BulkDock/SCRATCH/511025/C17987-P64

>  <fragmenstein_runtime>  (698) 
29.55829119682312

>  <fragmenstein_outcome>  (698) 
too moved

>  <fragmenstein_mode>  (698) 
expansion

>  <fragmenstein_error>  (698) 


$$$$
C17989-P99
     RDKit          3D

 33 35  0  0  0  0  0  0  0  0999 V2000
  -12.1875  -19.8982   12.2712 O   0  0  0  0  0  0  0  0  0  0  0  0
  -12.2342  -19.1908   13.2394 C   0  0  0  0  0  0  0  0  0  0  0  0
  -12.3405  -19.5250   14.6587 N   0  0  0  0  0  0  0  0  0  0  0  0
  -12.5113  -20.7544   15.2969 C   0  0  0  0  0  0  0  0  0  0  0  0
  -12.9184  -21.9513   14.7372 C   0  0  0  0  0  0  0  0  0  0  0  0
  -13.0964  -22.8550   15.8002 C   0  0  0  0  0  0  0  0  0  0  0  0
  -12.7867  -22.3103   16.9687 N   0  0  0  0  0  0  0  0  0  0  0  0
  -12.3229  -21.0785   16.6399 N   0  0  0  0  0  0  0  0  0  0  0  0
  -11.5094  -20.4068   17.6431 C   0  0  0  0  0  0  0  0  0  0  0  0
  -12.2419  -20.2734   18.9911 C   0  0  0  0  0  0  0  0  0  0  0  0
  -11.7388  -21.4377   19.8347 C   0  0  0  0  0  0  0  0  0  0  0  0
  -10.2806  -21.5677   19.4351 C   0  0  0  0  0  0  0  0  0  0  0  0
  -10.2250  -21.2036   17.9541 C   0  0  0  0  0  0  0  0  0  0  0  0
  -12.1803  -17.7182   12.9806 C   0  0  0  0  0  0  0  0  0  0  0  0
  -12.6551  -16.7640   13.7674 N   0  0  0  0  0  0  0  0  0  0  0  0
  -12.4498  -15.5656   13.1082 C   0  0  0  0  0  0  0  0  0  0  0  0
  -11.8207  -15.7715   11.9084 C   0  0  0  0  0  0  0  0  0  0  0  0
  -11.6624  -17.1313   11.8312 N   0  0  0  0  0  0  0  0  0  0  0  0
  -12.2700  -18.6742   15.2054 H   0  0  0  0  0  0  0  0  0  0  0  0
  -13.1311  -22.1269   13.6917 H   0  0  0  0  0  0  0  0  0  0  0  0
  -13.4507  -23.8770   15.7674 H   0  0  0  0  0  0  0  0  0  0  0  0
  -11.2457  -19.4313   17.2273 H   0  0  0  0  0  0  0  0  0  0  0  0
  -11.9623  -19.3340   19.4803 H   0  0  0  0  0  0  0  0  0  0  0  0
  -13.3333  -20.2787   18.9003 H   0  0  0  0  0  0  0  0  0  0  0  0
  -11.8568  -21.2510   20.9063 H   0  0  0  0  0  0  0  0  0  0  0  0
  -12.2829  -22.3579   19.5968 H   0  0  0  0  0  0  0  0  0  0  0  0
   -9.6697  -20.8690   20.0175 H   0  0  0  0  0  0  0  0  0  0  0  0
   -9.8908  -22.5727   19.6141 H   0  0  0  0  0  0  0  0  0  0  0  0
  -10.1291  -22.1074   17.3411 H   0  0  0  0  0  0  0  0  0  0  0  0
   -9.3331  -20.6022   17.7577 H   0  0  0  0  0  0  0  0  0  0  0  0
  -12.7885  -14.6370   13.5486 H   0  0  0  0  0  0  0  0  0  0  0  0
  -11.5226  -15.1031   11.1147 H   0  0  0  0  0  0  0  0  0  0  0  0
  -11.2783  -17.6598   11.0592 H   0  0  0  0  0  0  0  0  0  0  0  0
  1  2  2  0
  2  3  1  0
  3  4  1  0
  4  5  2  0
  5  6  1  0
  6  7  2  0
  7  8  1  0
  8  9  1  0
  9 10  1  0
 10 11  1  0
 11 12  1  0
 12 13  1  0
  2 14  1  0
 14 15  2  0
 15 16  1  0
 16 17  2  0
 17 18  1  0
  8  4  1  0
 13  9  1  0
 18 14  1  0
  3 19  1  0
  5 20  1  0
  6 21  1  0
  9 22  1  0
 10 23  1  0
 10 24  1  0
 11 25  1  0
 11 26  1  0
 12 27  1  0
 12 28  1  0
 13 29  1  0
 13 30  1  0
 16 31  1  0
 17 32  1  0
 18 33  1  0
M  END
>  <Energy>  (699) 
52.988799410314115

>  <compound_id>  (699) 
17989

>  <target_id>  (699) 
1

>  <reference_id>  (699) 
99

>  <inspiration_ids>  (699) 
[99, 64]

>  <energy_score>  (699) 
-15.784883095460259

>  <distance_score>  (699) 
16.187614030341884

>  <path>  (699) 
/opt/xchem-fragalysis-2/maxwin/BulkDock/SCRATCH/511025/C17989-P99/C17989-P99.minimised.mol

>  <scratch_subdir>  (699) 
/opt/xchem-fragalysis-2/maxwin/BulkDock/SCRATCH/511025/C17989-P99

>  <fragmenstein_runtime>  (699) 
22.113564014434814

>  <fragmenstein_outcome>  (699) 
too moved

>  <fragmenstein_mode>  (699) 
expansion

>  <fragmenstein_error>  (699) 


$$$$
C17989-P64
     RDKit          3D

 33 35  0  0  0  0  0  0  0  0999 V2000
   -7.3854  -18.7343   21.9245 O   0  0  0  0  0  0  0  0  0  0  0  0
   -6.8276  -19.2866   21.0177 C   0  0  0  0  0  0  0  0  0  0  0  0
   -7.2083  -20.4508   20.2410 N   0  0  0  0  0  0  0  0  0  0  0  0
   -8.3683  -21.2157   20.2500 C   0  0  0  0  0  0  0  0  0  0  0  0
   -8.4243  -22.3909   19.5159 C   0  0  0  0  0  0  0  0  0  0  0  0
   -9.7785  -22.6637   19.3209 C   0  0  0  0  0  0  0  0  0  0  0  0
  -10.5500  -21.7710   19.9264 N   0  0  0  0  0  0  0  0  0  0  0  0
   -9.6857  -21.0339   20.6788 N   0  0  0  0  0  0  0  0  0  0  0  0
  -10.3318  -20.2187   21.7019 C   0  0  0  0  0  0  0  0  0  0  0  0
  -11.4564  -19.2888   21.1713 C   0  0  0  0  0  0  0  0  0  0  0  0
  -12.7454  -19.6541   21.9039 C   0  0  0  0  0  0  0  0  0  0  0  0
  -12.5431  -21.0963   22.3136 C   0  0  0  0  0  0  0  0  0  0  0  0
  -11.0795  -21.1019   22.7236 C   0  0  0  0  0  0  0  0  0  0  0  0
   -5.5657  -18.7241   20.4302 C   0  0  0  0  0  0  0  0  0  0  0  0
   -4.4773  -18.2930   21.0465 N   0  0  0  0  0  0  0  0  0  0  0  0
   -3.5783  -17.9250   20.0575 C   0  0  0  0  0  0  0  0  0  0  0  0
   -4.1548  -18.0207   18.8162 C   0  0  0  0  0  0  0  0  0  0  0  0
   -5.4241  -18.4526   19.0786 N   0  0  0  0  0  0  0  0  0  0  0  0
   -6.4541  -20.6876   19.6080 H   0  0  0  0  0  0  0  0  0  0  0  0
   -7.5955  -22.9255   19.0750 H   0  0  0  0  0  0  0  0  0  0  0  0
  -10.2371  -23.4651   18.7570 H   0  0  0  0  0  0  0  0  0  0  0  0
   -9.5548  -19.6396   22.1970 H   0  0  0  0  0  0  0  0  0  0  0  0
  -11.2221  -18.2352   21.3531 H   0  0  0  0  0  0  0  0  0  0  0  0
  -11.6213  -19.4136   20.0975 H   0  0  0  0  0  0  0  0  0  0  0  0
  -12.8608  -19.0209   22.7919 H   0  0  0  0  0  0  0  0  0  0  0  0
  -13.6316  -19.5175   21.2773 H   0  0  0  0  0  0  0  0  0  0  0  0
  -12.7270  -21.7720   21.4724 H   0  0  0  0  0  0  0  0  0  0  0  0
  -13.2034  -21.3891   23.1353 H   0  0  0  0  0  0  0  0  0  0  0  0
  -11.0332  -20.6231   23.7007 H   0  0  0  0  0  0  0  0  0  0  0  0
  -10.6762  -22.1110   22.8242 H   0  0  0  0  0  0  0  0  0  0  0  0
   -2.5811  -17.5872   20.3100 H   0  0  0  0  0  0  0  0  0  0  0  0
   -3.8001  -17.7980   17.8202 H   0  0  0  0  0  0  0  0  0  0  0  0
   -6.1686  -18.5926   18.4178 H   0  0  0  0  0  0  0  0  0  0  0  0
  1  2  2  0
  2  3  1  0
  3  4  1  0
  4  5  2  0
  5  6  1  0
  6  7  2  0
  7  8  1  0
  8  9  1  0
  9 10  1  0
 10 11  1  0
 11 12  1  0
 12 13  1  0
  2 14  1  0
 14 15  2  0
 15 16  1  0
 16 17  2  0
 17 18  1  0
  8  4  1  0
 13  9  1  0
 18 14  1  0
  3 19  1  0
  5 20  1  0
  6 21  1  0
  9 22  1  0
 10 23  1  0
 10 24  1  0
 11 25  1  0
 11 26  1  0
 12 27  1  0
 12 28  1  0
 13 29  1  0
 13 30  1  0
 16 31  1  0
 17 32  1  0
 18 33  1  0
M  END
>  <Energy>  (700) 
77.853480594723578

>  <compound_id>  (700) 
17989

>  <target_id>  (700) 
1

>  <reference_id>  (700) 
64

>  <inspiration_ids>  (700) 
[99, 64]

>  <energy_score>  (700) 
9.07979808894612

>  <distance_score>  (700) 
17.141307014505077

>  <path>  (700) 
/opt/xchem-fragalysis-2/maxwin/BulkDock/SCRATCH/511025/C17989-P64/C17989-P64.minimised.mol

>  <scratch_subdir>  (700) 
/opt/xchem-fragalysis-2/maxwin/BulkDock/SCRATCH/511025/C17989-P64

>  <fragmenstein_runtime>  (700) 
20.296299934387207

>  <fragmenstein_outcome>  (700) 
too moved

>  <fragmenstein_mode>  (700) 
expansion

>  <fragmenstein_error>  (700) 


$$$$
C48745-P99
     RDKit          3D

 39 41  0  0  0  0  0  0  0  0999 V2000
   -5.9085   -8.0600   10.5659 C   0  0  0  0  0  0  0  0  0  0  0  0
   -4.5394   -7.8814   11.0343 N   0  0  0  0  0  0  0  0  0  0  0  0
   -4.7740   -6.2276   10.3388 C   0  0  0  0  0  0  0  0  0  0  0  0
   -3.7084   -5.1185    9.0544 C   0  0  0  0  0  0  0  0  0  0  0  0
   -3.4408   -4.8237    7.5878 C   0  0  0  0  0  0  0  0  0  0  0  0
   -3.8885   -3.5642    7.1489 N   0  0  0  0  0  0  0  0  0  0  0  0
   -3.3814   -2.8182    8.1083 C   0  0  0  0  0  0  0  0  0  0  0  0
   -3.2244   -3.6916    9.1152 N   0  0  0  0  0  0  0  0  0  0  0  0
   -4.4337   -8.3149   12.4018 C   0  0  0  0  0  0  0  0  0  0  0  0
   -4.5654   -7.7022   13.4288 O   0  0  0  0  0  0  0  0  0  0  0  0
   -4.2283   -9.7659   12.4855 C   0  0  0  0  0  0  0  0  0  0  0  0
   -3.9047  -10.7162   11.4981 C   0  0  0  0  0  0  0  0  0  0  0  0
   -4.1348  -11.9735   11.8928 N   0  0  0  0  0  0  0  0  0  0  0  0
   -4.6106  -11.8474   13.1543 N   0  0  0  0  0  0  0  0  0  0  0  0
   -5.1127  -13.0326   13.8576 C   0  0  0  0  0  0  0  0  0  0  0  0
   -6.4392  -12.8371   14.6309 C   0  0  0  0  0  0  0  0  0  0  0  0
   -6.0600  -12.9147   16.1012 C   0  0  0  0  0  0  0  0  0  0  0  0
   -4.9913  -13.9918   16.1149 C   0  0  0  0  0  0  0  0  0  0  0  0
   -4.1393  -13.6301   14.9031 C   0  0  0  0  0  0  0  0  0  0  0  0
   -4.6183  -10.5428   13.5678 C   0  0  0  0  0  0  0  0  0  0  0  0
   -6.5696   -7.9901   11.4240 H   0  0  0  0  0  0  0  0  0  0  0  0
   -6.3251   -7.8446    9.5850 H   0  0  0  0  0  0  0  0  0  0  0  0
   -5.9527   -9.1579   10.4441 H   0  0  0  0  0  0  0  0  0  0  0  0
   -5.8312   -6.1388    9.9940 H   0  0  0  0  0  0  0  0  0  0  0  0
   -4.9472   -5.7389   11.3305 H   0  0  0  0  0  0  0  0  0  0  0  0
   -2.9667   -5.3006    6.7671 H   0  0  0  0  0  0  0  0  0  0  0  0
   -4.0248   -3.2818    6.1898 H   0  0  0  0  0  0  0  0  0  0  0  0
   -3.1618   -1.7590    8.1052 H   0  0  0  0  0  0  0  0  0  0  0  0
   -3.5711  -10.5505   10.4834 H   0  0  0  0  0  0  0  0  0  0  0  0
   -5.2959  -13.7791   13.0725 H   0  0  0  0  0  0  0  0  0  0  0  0
   -7.1199  -13.6632   14.3886 H   0  0  0  0  0  0  0  0  0  0  0  0
   -6.9593  -11.9054   14.3890 H   0  0  0  0  0  0  0  0  0  0  0  0
   -6.9300  -13.1158   16.7209 H   0  0  0  0  0  0  0  0  0  0  0  0
   -5.6351  -11.9592   16.4321 H   0  0  0  0  0  0  0  0  0  0  0  0
   -5.4326  -14.9864   15.9886 H   0  0  0  0  0  0  0  0  0  0  0  0
   -4.3900  -13.9740   17.0227 H   0  0  0  0  0  0  0  0  0  0  0  0
   -3.6115  -14.5044   14.5084 H   0  0  0  0  0  0  0  0  0  0  0  0
   -3.3792  -12.8926   15.1892 H   0  0  0  0  0  0  0  0  0  0  0  0
   -4.9937  -10.2564   14.5402 H   0  0  0  0  0  0  0  0  0  0  0  0
  1  2  1  0
  2  3  1  0
  3  4  1  0
  4  5  2  0
  5  6  1  0
  6  7  1  0
  7  8  2  0
  2  9  1  0
  9 10  2  0
  9 11  1  0
 11 12  1  0
 12 13  2  0
 13 14  1  0
 14 15  1  0
 15 16  1  0
 16 17  1  0
 17 18  1  0
 18 19  1  0
 14 20  1  0
  8  4  1  0
 20 11  2  0
 19 15  1  0
  1 21  1  0
  1 22  1  0
  1 23  1  0
  3 24  1  0
  3 25  1  0
  5 26  1  0
  6 27  1  0
  7 28  1  0
 12 29  1  0
 15 30  1  0
 16 31  1  0
 16 32  1  0
 17 33  1  0
 17 34  1  0
 18 35  1  0
 18 36  1  0
 19 37  1  0
 19 38  1  0
 20 39  1  0
M  END
>  <Energy>  (701) 
309.64422318613686

>  <compound_id>  (701) 
48745

>  <target_id>  (701) 
1

>  <reference_id>  (701) 
99

>  <inspiration_ids>  (701) 
[99, 64]

>  <energy_score>  (701) 
252.15504043380827

>  <distance_score>  (701) 
13.025489620988186

>  <path>  (701) 
/opt/xchem-fragalysis-2/maxwin/BulkDock/SCRATCH/511025/C48745-P99/C48745-P99.minimised.mol

>  <scratch_subdir>  (701) 
/opt/xchem-fragalysis-2/maxwin/BulkDock/SCRATCH/511025/C48745-P99

>  <fragmenstein_runtime>  (701) 
35.015868186950684

>  <fragmenstein_outcome>  (701) 
too moved

>  <fragmenstein_mode>  (701) 
expansion

>  <fragmenstein_error>  (701) 


$$$$
C48745-P64
     RDKit          3D

 39 41  0  0  0  0  0  0  0  0999 V2000
   -1.0944   -8.8075   12.0349 C   0  0  0  0  0  0  0  0  0  0  0  0
   -2.4575   -8.2165   11.9396 N   0  0  0  0  0  0  0  0  0  0  0  0
   -1.5599   -6.9316   11.0546 C   0  0  0  0  0  0  0  0  0  0  0  0
   -2.7860   -5.8622    9.7818 C   0  0  0  0  0  0  0  0  0  0  0  0
   -3.4689   -4.7153    9.5766 C   0  0  0  0  0  0  0  0  0  0  0  0
   -3.4096   -3.9733    8.3021 N   0  0  0  0  0  0  0  0  0  0  0  0
   -3.2675   -4.9956    7.5766 C   0  0  0  0  0  0  0  0  0  0  0  0
   -3.3051   -5.9903    8.5343 N   0  0  0  0  0  0  0  0  0  0  0  0
   -3.0818   -8.2016   13.2370 C   0  0  0  0  0  0  0  0  0  0  0  0
   -3.0811   -7.3546   14.0944 O   0  0  0  0  0  0  0  0  0  0  0  0
   -3.9398   -9.3714   13.5061 C   0  0  0  0  0  0  0  0  0  0  0  0
   -4.5915  -10.2441   12.6062 C   0  0  0  0  0  0  0  0  0  0  0  0
   -5.5319  -10.9997   13.1946 N   0  0  0  0  0  0  0  0  0  0  0  0
   -5.5331  -10.5933   14.4885 N   0  0  0  0  0  0  0  0  0  0  0  0
   -6.5644  -11.0769   15.4113 C   0  0  0  0  0  0  0  0  0  0  0  0
   -7.2773   -9.9823   16.2192 C   0  0  0  0  0  0  0  0  0  0  0  0
   -8.0205  -10.7278   17.3121 C   0  0  0  0  0  0  0  0  0  0  0  0
   -7.0610  -11.8216   17.7240 C   0  0  0  0  0  0  0  0  0  0  0  0
   -6.1346  -12.0774   16.5158 C   0  0  0  0  0  0  0  0  0  0  0  0
   -4.5657   -9.6480   14.7169 C   0  0  0  0  0  0  0  0  0  0  0  0
   -0.3820   -8.1928   12.6012 H   0  0  0  0  0  0  0  0  0  0  0  0
   -1.1951   -9.7184   12.6425 H   0  0  0  0  0  0  0  0  0  0  0  0
   -0.7194   -9.1802   11.0743 H   0  0  0  0  0  0  0  0  0  0  0  0
   -1.2581   -6.3549   11.9707 H   0  0  0  0  0  0  0  0  0  0  0  0
   -0.6056   -7.2943   10.5770 H   0  0  0  0  0  0  0  0  0  0  0  0
   -3.7620   -4.1815   10.3854 H   0  0  0  0  0  0  0  0  0  0  0  0
   -3.4207   -2.9759    8.1040 H   0  0  0  0  0  0  0  0  0  0  0  0
   -3.0412   -5.1755    6.5583 H   0  0  0  0  0  0  0  0  0  0  0  0
   -4.4595  -10.3192   11.5338 H   0  0  0  0  0  0  0  0  0  0  0  0
   -7.3186  -11.5739   14.7842 H   0  0  0  0  0  0  0  0  0  0  0  0
   -6.5617   -9.2874   16.6744 H   0  0  0  0  0  0  0  0  0  0  0  0
   -7.9553   -9.3918   15.5939 H   0  0  0  0  0  0  0  0  0  0  0  0
   -8.9453  -11.1525   16.9084 H   0  0  0  0  0  0  0  0  0  0  0  0
   -8.2917  -10.0714   18.1431 H   0  0  0  0  0  0  0  0  0  0  0  0
   -6.4610  -11.5122   18.5868 H   0  0  0  0  0  0  0  0  0  0  0  0
   -7.6591  -12.6806   18.0159 H   0  0  0  0  0  0  0  0  0  0  0  0
   -6.2200  -13.1078   16.1549 H   0  0  0  0  0  0  0  0  0  0  0  0
   -5.0898  -11.9204   16.8078 H   0  0  0  0  0  0  0  0  0  0  0  0
   -4.4511   -9.1797   15.6840 H   0  0  0  0  0  0  0  0  0  0  0  0
  1  2  1  0
  2  3  1  0
  3  4  1  0
  4  5  2  0
  5  6  1  0
  6  7  1  0
  7  8  2  0
  2  9  1  0
  9 10  2  0
  9 11  1  0
 11 12  1  0
 12 13  2  0
 13 14  1  0
 14 15  1  0
 15 16  1  0
 16 17  1  0
 17 18  1  0
 18 19  1  0
 14 20  1  0
  8  4  1  0
 20 11  2  0
 19 15  1  0
  1 21  1  0
  1 22  1  0
  1 23  1  0
  3 24  1  0
  3 25  1  0
  5 26  1  0
  6 27  1  0
  7 28  1  0
 12 29  1  0
 15 30  1  0
 16 31  1  0
 16 32  1  0
 17 33  1  0
 17 34  1  0
 18 35  1  0
 18 36  1  0
 19 37  1  0
 19 38  1  0
 20 39  1  0
M  END
>  <Energy>  (702) 
308.85142273267462

>  <compound_id>  (702) 
48745

>  <target_id>  (702) 
1

>  <reference_id>  (702) 
64

>  <inspiration_ids>  (702) 
[99, 64]

>  <energy_score>  (702) 
251.3622399803429

>  <distance_score>  (702) 
13.520215573744924

>  <path>  (702) 
/opt/xchem-fragalysis-2/maxwin/BulkDock/SCRATCH/511025/C48745-P64/C48745-P64.minimised.mol

>  <scratch_subdir>  (702) 
/opt/xchem-fragalysis-2/maxwin/BulkDock/SCRATCH/511025/C48745-P64

>  <fragmenstein_runtime>  (702) 
34.66046333312988

>  <fragmenstein_outcome>  (702) 
too moved

>  <fragmenstein_mode>  (702) 
expansion

>  <fragmenstein_error>  (702) 


$$$$
C17995-P99
     RDKit          3D

 43 45  0  0  0  0  0  0  0  0999 V2000
   -9.6442  -14.6116   12.5858 C   0  0  0  0  0  0  0  0  0  0  0  0
   -8.2160  -15.0290   12.9835 C   0  0  0  0  0  0  0  0  0  0  0  0
   -8.2159  -16.5322   13.2850 N   0  0  0  0  0  0  0  0  0  0  0  0
   -7.6587  -17.0028   14.6446 C   0  0  0  0  0  0  0  0  0  0  0  0
   -8.3358  -18.2318   15.3897 C   0  0  0  0  0  0  0  0  0  0  0  0
   -7.6520  -18.6169   16.6844 C   0  0  0  0  0  0  0  0  0  0  0  0
   -8.1585  -18.6911   18.0057 C   0  0  0  0  0  0  0  0  0  0  0  0
   -7.0669  -18.9804   18.7953 C   0  0  0  0  0  0  0  0  0  0  0  0
   -6.0053  -19.1247   17.9458 N   0  0  0  0  0  0  0  0  0  0  0  0
   -4.5844  -19.1328   18.2803 C   0  0  0  0  0  0  0  0  0  0  0  0
   -3.6470  -19.4914   17.1127 C   0  0  0  0  0  0  0  0  0  0  0  0
   -3.6257  -21.0194   17.0820 C   0  0  0  0  0  0  0  0  0  0  0  0
   -4.0443  -21.4694   18.4815 C   0  0  0  0  0  0  0  0  0  0  0  0
   -4.1636  -20.1881   19.2989 C   0  0  0  0  0  0  0  0  0  0  0  0
   -6.3549  -18.9353   16.6604 N   0  0  0  0  0  0  0  0  0  0  0  0
   -7.2242  -14.4820   11.9140 C   0  0  0  0  0  0  0  0  0  0  0  0
   -5.9050  -14.5984   11.8852 N   0  0  0  0  0  0  0  0  0  0  0  0
   -5.4521  -13.8449   10.8245 C   0  0  0  0  0  0  0  0  0  0  0  0
   -6.4998  -13.2611   10.1662 C   0  0  0  0  0  0  0  0  0  0  0  0
   -7.6086  -13.6472   10.8685 N   0  0  0  0  0  0  0  0  0  0  0  0
  -10.3641  -14.9016   13.3571 H   0  0  0  0  0  0  0  0  0  0  0  0
   -9.7177  -13.5301   12.4535 H   0  0  0  0  0  0  0  0  0  0  0  0
   -9.9552  -15.0925   11.6508 H   0  0  0  0  0  0  0  0  0  0  0  0
   -8.0155  -14.5250   13.9200 H   0  0  0  0  0  0  0  0  0  0  0  0
   -7.6171  -16.9612   12.5745 H   0  0  0  0  0  0  0  0  0  0  0  0
   -7.6362  -16.1677   15.3351 H   0  0  0  0  0  0  0  0  0  0  0  0
   -6.6057  -17.2519   14.4600 H   0  0  0  0  0  0  0  0  0  0  0  0
   -9.3869  -18.0041   15.5855 H   0  0  0  0  0  0  0  0  0  0  0  0
   -8.3190  -19.0967   14.7150 H   0  0  0  0  0  0  0  0  0  0  0  0
   -9.1654  -18.5038   18.3435 H   0  0  0  0  0  0  0  0  0  0  0  0
   -6.9603  -19.0603   19.8649 H   0  0  0  0  0  0  0  0  0  0  0  0
   -4.3646  -18.1241   18.6450 H   0  0  0  0  0  0  0  0  0  0  0  0
   -2.6361  -19.1279   17.3406 H   0  0  0  0  0  0  0  0  0  0  0  0
   -3.9240  -19.0631   16.1451 H   0  0  0  0  0  0  0  0  0  0  0  0
   -4.3320  -21.4038   16.3376 H   0  0  0  0  0  0  0  0  0  0  0  0
   -2.6313  -21.3928   16.8168 H   0  0  0  0  0  0  0  0  0  0  0  0
   -3.3245  -22.1658   18.9223 H   0  0  0  0  0  0  0  0  0  0  0  0
   -5.0113  -21.9816   18.4265 H   0  0  0  0  0  0  0  0  0  0  0  0
   -3.1755  -19.9303   19.7032 H   0  0  0  0  0  0  0  0  0  0  0  0
   -4.8327  -20.2790   20.1509 H   0  0  0  0  0  0  0  0  0  0  0  0
   -4.3978  -13.7807   10.5915 H   0  0  0  0  0  0  0  0  0  0  0  0
   -6.5564  -12.6194    9.2990 H   0  0  0  0  0  0  0  0  0  0  0  0
   -8.5562  -13.3763   10.6505 H   0  0  0  0  0  0  0  0  0  0  0  0
  1  2  1  0
  2  3  1  0
  3  4  1  0
  4  5  1  0
  5  6  1  0
  6  7  1  0
  7  8  2  0
  8  9  1  0
  9 10  1  0
 10 11  1  0
 11 12  1  0
 12 13  1  0
 13 14  1  0
  9 15  1  0
  2 16  1  0
 16 17  2  0
 17 18  1  0
 18 19  2  0
 19 20  1  0
 15  6  2  0
 20 16  1  0
 14 10  1  0
  1 21  1  0
  1 22  1  0
  1 23  1  0
  2 24  1  0
  3 25  1  0
  4 26  1  0
  4 27  1  0
  5 28  1  0
  5 29  1  0
  7 30  1  0
  8 31  1  0
 10 32  1  0
 11 33  1  0
 11 34  1  0
 12 35  1  0
 12 36  1  0
 13 37  1  0
 13 38  1  0
 14 39  1  0
 14 40  1  0
 18 41  1  0
 19 42  1  0
 20 43  1  0
M  END
>  <Energy>  (703) 
54.068256917966906

>  <compound_id>  (703) 
17995

>  <target_id>  (703) 
1

>  <reference_id>  (703) 
99

>  <inspiration_ids>  (703) 
[99, 64]

>  <energy_score>  (703) 
-1.8649765117966126

>  <distance_score>  (703) 
14.040333128065399

>  <path>  (703) 
/opt/xchem-fragalysis-2/maxwin/BulkDock/SCRATCH/511025/C17995-P99/C17995-P99.minimised.mol

>  <scratch_subdir>  (703) 
/opt/xchem-fragalysis-2/maxwin/BulkDock/SCRATCH/511025/C17995-P99

>  <fragmenstein_runtime>  (703) 
40.339155197143555

>  <fragmenstein_outcome>  (703) 
too moved

>  <fragmenstein_mode>  (703) 
expansion

>  <fragmenstein_error>  (703) 


$$$$
C17995-P64
     RDKit          3D

 43 45  0  0  0  0  0  0  0  0999 V2000
   -8.2417  -14.1995   13.4989 C   0  0  0  0  0  0  0  0  0  0  0  0
   -9.3692  -13.1959   13.7233 C   0  0  0  0  0  0  0  0  0  0  0  0
   -9.6163  -12.2508   14.9573 N   0  0  0  0  0  0  0  0  0  0  0  0
  -10.7886  -12.3697   16.4730 C   0  0  0  0  0  0  0  0  0  0  0  0
  -10.2233  -12.6978   18.3145 C   0  0  0  0  0  0  0  0  0  0  0  0
  -10.3751  -14.1444   19.5500 C   0  0  0  0  0  0  0  0  0  0  0  0
  -11.2630  -14.4973   20.6737 C   0  0  0  0  0  0  0  0  0  0  0  0
  -11.3409  -15.8885   20.7055 C   0  0  0  0  0  0  0  0  0  0  0  0
  -10.4532  -16.3087   19.7639 N   0  0  0  0  0  0  0  0  0  0  0  0
  -10.5395  -17.4307   18.8474 C   0  0  0  0  0  0  0  0  0  0  0  0
   -9.2177  -18.0051   18.3351 C   0  0  0  0  0  0  0  0  0  0  0  0
   -9.6679  -19.2496   17.5877 C   0  0  0  0  0  0  0  0  0  0  0  0
  -10.8403  -19.7978   18.3952 C   0  0  0  0  0  0  0  0  0  0  0  0
  -11.4305  -18.6176   19.1755 C   0  0  0  0  0  0  0  0  0  0  0  0
   -9.6462  -15.2959   19.4149 N   0  0  0  0  0  0  0  0  0  0  0  0
   -9.3242  -12.3511   12.3452 C   0  0  0  0  0  0  0  0  0  0  0  0
   -9.2116  -12.8566   11.1238 N   0  0  0  0  0  0  0  0  0  0  0  0
   -9.6003  -11.8698   10.2540 C   0  0  0  0  0  0  0  0  0  0  0  0
   -9.9282  -10.7319   10.9434 C   0  0  0  0  0  0  0  0  0  0  0  0
   -9.6212  -11.0004   12.2540 N   0  0  0  0  0  0  0  0  0  0  0  0
   -8.5290  -14.9080   12.7080 H   0  0  0  0  0  0  0  0  0  0  0  0
   -7.3217  -13.7366   13.1327 H   0  0  0  0  0  0  0  0  0  0  0  0
   -8.0647  -14.8280   14.3719 H   0  0  0  0  0  0  0  0  0  0  0  0
  -10.2241  -13.8925   13.6932 H   0  0  0  0  0  0  0  0  0  0  0  0
   -8.7183  -12.0426   15.3670 H   0  0  0  0  0  0  0  0  0  0  0  0
  -11.4112  -11.5068   16.5282 H   0  0  0  0  0  0  0  0  0  0  0  0
  -11.3838  -13.0161   15.9377 H   0  0  0  0  0  0  0  0  0  0  0  0
   -9.1617  -12.4557   18.4392 H   0  0  0  0  0  0  0  0  0  0  0  0
  -10.8445  -11.8781   18.5492 H   0  0  0  0  0  0  0  0  0  0  0  0
  -11.9753  -13.8791   21.1987 H   0  0  0  0  0  0  0  0  0  0  0  0
  -12.0475  -16.5531   21.1751 H   0  0  0  0  0  0  0  0  0  0  0  0
  -11.0315  -17.0277   17.9692 H   0  0  0  0  0  0  0  0  0  0  0  0
   -8.5194  -18.2529   19.1377 H   0  0  0  0  0  0  0  0  0  0  0  0
   -8.6979  -17.3119   17.6649 H   0  0  0  0  0  0  0  0  0  0  0  0
  -10.0116  -18.9745   16.5830 H   0  0  0  0  0  0  0  0  0  0  0  0
   -8.8597  -19.9763   17.4731 H   0  0  0  0  0  0  0  0  0  0  0  0
  -11.5870  -20.2558   17.7383 H   0  0  0  0  0  0  0  0  0  0  0  0
  -10.4998  -20.5777   19.0837 H   0  0  0  0  0  0  0  0  0  0  0  0
  -12.4571  -18.4139   18.8466 H   0  0  0  0  0  0  0  0  0  0  0  0
  -11.4906  -18.8269   20.2421 H   0  0  0  0  0  0  0  0  0  0  0  0
   -9.6369  -12.0409    9.1867 H   0  0  0  0  0  0  0  0  0  0  0  0
  -10.2824   -9.7771   10.6116 H   0  0  0  0  0  0  0  0  0  0  0  0
   -9.7547  -10.3975   13.0540 H   0  0  0  0  0  0  0  0  0  0  0  0
  1  2  1  0
  2  3  1  0
  3  4  1  0
  4  5  1  0
  5  6  1  0
  6  7  1  0
  7  8  2  0
  8  9  1  0
  9 10  1  0
 10 11  1  0
 11 12  1  0
 12 13  1  0
 13 14  1  0
  9 15  1  0
  2 16  1  0
 16 17  2  0
 17 18  1  0
 18 19  2  0
 19 20  1  0
 15  6  2  0
 20 16  1  0
 14 10  1  0
  1 21  1  0
  1 22  1  0
  1 23  1  0
  2 24  1  0
  3 25  1  0
  4 26  1  0
  4 27  1  0
  5 28  1  0
  5 29  1  0
  7 30  1  0
  8 31  1  0
 10 32  1  0
 11 33  1  0
 11 34  1  0
 12 35  1  0
 12 36  1  0
 13 37  1  0
 13 38  1  0
 14 39  1  0
 14 40  1  0
 18 41  1  0
 19 42  1  0
 20 43  1  0
M  END
>  <Energy>  (704) 
268.05175400373145

>  <compound_id>  (704) 
17995

>  <target_id>  (704) 
1

>  <reference_id>  (704) 
64

>  <inspiration_ids>  (704) 
[99, 64]

>  <energy_score>  (704) 
212.11852057396857

>  <distance_score>  (704) 
13.718313298923956

>  <path>  (704) 
/opt/xchem-fragalysis-2/maxwin/BulkDock/SCRATCH/511025/C17995-P64/C17995-P64.minimised.mol

>  <scratch_subdir>  (704) 
/opt/xchem-fragalysis-2/maxwin/BulkDock/SCRATCH/511025/C17995-P64

>  <fragmenstein_runtime>  (704) 
17.927249431610107

>  <fragmenstein_outcome>  (704) 
too moved

>  <fragmenstein_mode>  (704) 
expansion

>  <fragmenstein_error>  (704) 


$$$$
C17997-P99
     RDKit          3D

 42 44  0  0  0  0  0  0  0  0999 V2000
   -9.0150  -13.4616   20.7333 O   0  0  0  0  0  0  0  0  0  0  0  0
   -8.5743  -14.1274   19.8521 C   0  0  0  0  0  0  0  0  0  0  0  0
   -8.3578  -16.0860   20.2655 C   0  0  0  0  0  0  0  0  0  0  0  0
   -7.5853  -17.5565   21.4280 C   0  0  0  0  0  0  0  0  0  0  0  0
   -7.2848  -17.7139   22.8620 C   0  0  0  0  0  0  0  0  0  0  0  0
   -8.0697  -18.7319   23.2211 C   0  0  0  0  0  0  0  0  0  0  0  0
   -8.1664  -19.6516   22.2484 N   0  0  0  0  0  0  0  0  0  0  0  0
   -9.5131  -20.5196   22.2854 C   0  0  0  0  0  0  0  0  0  0  0  0
  -10.7548  -20.8868   23.2341 C   0  0  0  0  0  0  0  0  0  0  0  0
  -11.3824  -22.1164   22.7152 C   0  0  0  0  0  0  0  0  0  0  0  0
  -11.0224  -22.0243   21.2645 C   0  0  0  0  0  0  0  0  0  0  0  0
   -9.5761  -21.5555   21.2332 C   0  0  0  0  0  0  0  0  0  0  0  0
   -7.5673  -18.9693   21.1102 N   0  0  0  0  0  0  0  0  0  0  0  0
   -8.0883  -13.7579   18.6006 N   0  0  0  0  0  0  0  0  0  0  0  0
   -8.0470  -12.5027   17.9433 C   0  0  0  0  0  0  0  0  0  0  0  0
   -6.8108  -11.5957   17.8765 C   0  0  0  0  0  0  0  0  0  0  0  0
   -6.0777  -10.3768   16.7239 C   0  0  0  0  0  0  0  0  0  0  0  0
   -6.5172   -9.1798   16.3075 N   0  0  0  0  0  0  0  0  0  0  0  0
   -5.5506   -8.5905   15.5300 C   0  0  0  0  0  0  0  0  0  0  0  0
   -4.4112   -9.3415   15.5681 C   0  0  0  0  0  0  0  0  0  0  0  0
   -4.7170  -10.4058   16.3811 N   0  0  0  0  0  0  0  0  0  0  0  0
   -7.8159  -15.8854   21.0957 H   0  0  0  0  0  0  0  0  0  0  0  0
   -9.3613  -16.2944   19.9594 H   0  0  0  0  0  0  0  0  0  0  0  0
   -7.1329  -17.0116   23.6675 H   0  0  0  0  0  0  0  0  0  0  0  0
   -8.8979  -18.6118   23.8636 H   0  0  0  0  0  0  0  0  0  0  0  0
  -10.0513  -19.5989   22.3316 H   0  0  0  0  0  0  0  0  0  0  0  0
  -11.5834  -20.1975   23.2982 H   0  0  0  0  0  0  0  0  0  0  0  0
  -10.6361  -20.8771   24.2681 H   0  0  0  0  0  0  0  0  0  0  0  0
  -12.4580  -22.1762   22.8932 H   0  0  0  0  0  0  0  0  0  0  0  0
  -10.9084  -22.9300   23.2418 H   0  0  0  0  0  0  0  0  0  0  0  0
  -11.6029  -21.2669   20.7620 H   0  0  0  0  0  0  0  0  0  0  0  0
  -11.2692  -22.9556   20.7838 H   0  0  0  0  0  0  0  0  0  0  0  0
   -9.2649  -21.2131   20.2525 H   0  0  0  0  0  0  0  0  0  0  0  0
   -8.8526  -22.2739   21.5997 H   0  0  0  0  0  0  0  0  0  0  0  0
   -7.8828  -14.5866   18.0782 H   0  0  0  0  0  0  0  0  0  0  0  0
   -8.9632  -12.1719   18.4350 H   0  0  0  0  0  0  0  0  0  0  0  0
   -8.1928  -12.6255   16.9010 H   0  0  0  0  0  0  0  0  0  0  0  0
   -5.9480  -12.2279   18.1351 H   0  0  0  0  0  0  0  0  0  0  0  0
   -7.2958  -10.9879   18.6243 H   0  0  0  0  0  0  0  0  0  0  0  0
   -5.7269   -7.6503   15.0256 H   0  0  0  0  0  0  0  0  0  0  0  0
   -3.4289   -9.2119   15.1387 H   0  0  0  0  0  0  0  0  0  0  0  0
   -4.0633  -11.0967   16.7204 H   0  0  0  0  0  0  0  0  0  0  0  0
  1  2  2  0
  2  3  1  0
  3  4  1  0
  4  5  1  0
  5  6  2  0
  6  7  1  0
  7  8  1  0
  8  9  1  0
  9 10  1  0
 10 11  1  0
 11 12  1  0
  7 13  1  0
  2 14  1  0
 14 15  1  0
 15 16  1  0
 16 17  1  0
 17 18  2  0
 18 19  1  0
 19 20  2  0
 20 21  1  0
 13  4  2  0
 21 17  1  0
 12  8  1  0
  3 22  1  0
  3 23  1  0
  5 24  1  0
  6 25  1  0
  8 26  1  0
  9 27  1  0
  9 28  1  0
 10 29  1  0
 10 30  1  0
 11 31  1  0
 11 32  1  0
 12 33  1  0
 12 34  1  0
 14 35  1  0
 15 36  1  0
 15 37  1  0
 16 38  1  0
 16 39  1  0
 19 40  1  0
 20 41  1  0
 21 42  1  0
M  END
>  <Energy>  (705) 
458.342711348112

>  <compound_id>  (705) 
17997

>  <target_id>  (705) 
1

>  <reference_id>  (705) 
99

>  <inspiration_ids>  (705) 
[99, 64]

>  <energy_score>  (705) 
408.52115267551267

>  <distance_score>  (705) 
12.566971885286137

>  <path>  (705) 
/opt/xchem-fragalysis-2/maxwin/BulkDock/SCRATCH/511025/C17997-P99/C17997-P99.minimised.mol

>  <scratch_subdir>  (705) 
/opt/xchem-fragalysis-2/maxwin/BulkDock/SCRATCH/511025/C17997-P99

>  <fragmenstein_runtime>  (705) 
20.41404676437378

>  <fragmenstein_outcome>  (705) 
too moved

>  <fragmenstein_mode>  (705) 
expansion

>  <fragmenstein_error>  (705) 


$$$$
C17997-P64
     RDKit          3D

 42 44  0  0  0  0  0  0  0  0999 V2000
   -8.0228  -12.4911   17.4346 O   0  0  0  0  0  0  0  0  0  0  0  0
   -8.0500  -13.0753   16.3550 C   0  0  0  0  0  0  0  0  0  0  0  0
   -7.1920  -14.8061   15.9108 C   0  0  0  0  0  0  0  0  0  0  0  0
   -7.3581  -16.4305   16.0792 C   0  0  0  0  0  0  0  0  0  0  0  0
   -7.2296  -17.3622   14.9941 C   0  0  0  0  0  0  0  0  0  0  0  0
   -7.1182  -18.6155   15.5507 C   0  0  0  0  0  0  0  0  0  0  0  0
   -6.9887  -18.3828   16.8835 N   0  0  0  0  0  0  0  0  0  0  0  0
   -6.2250  -19.1651   17.8504 C   0  0  0  0  0  0  0  0  0  0  0  0
   -4.7354  -18.8046   17.8416 C   0  0  0  0  0  0  0  0  0  0  0  0
   -4.1320  -19.6922   16.7623 C   0  0  0  0  0  0  0  0  0  0  0  0
   -4.9587  -20.9741   16.7805 C   0  0  0  0  0  0  0  0  0  0  0  0
   -6.2152  -20.6756   17.6018 C   0  0  0  0  0  0  0  0  0  0  0  0
   -7.4215  -17.1429   17.2115 N   0  0  0  0  0  0  0  0  0  0  0  0
   -8.7485  -12.5349   14.7013 N   0  0  0  0  0  0  0  0  0  0  0  0
   -9.3298  -11.2196   14.2671 C   0  0  0  0  0  0  0  0  0  0  0  0
   -9.1495  -10.9352   12.6876 C   0  0  0  0  0  0  0  0  0  0  0  0
   -7.8755  -10.2662   12.1654 C   0  0  0  0  0  0  0  0  0  0  0  0
   -7.4695  -10.3056   10.9042 N   0  0  0  0  0  0  0  0  0  0  0  0
   -6.3582   -9.5021   10.8163 C   0  0  0  0  0  0  0  0  0  0  0  0
   -6.0588   -8.9674   12.0428 C   0  0  0  0  0  0  0  0  0  0  0  0
   -7.0320   -9.4441   12.8843 N   0  0  0  0  0  0  0  0  0  0  0  0
   -7.4270  -14.7906   14.8399 H   0  0  0  0  0  0  0  0  0  0  0  0
   -6.3914  -14.6571   16.5773 H   0  0  0  0  0  0  0  0  0  0  0  0
   -7.1741  -17.1304   13.9396 H   0  0  0  0  0  0  0  0  0  0  0  0
   -6.9551  -19.5833   15.1002 H   0  0  0  0  0  0  0  0  0  0  0  0
   -6.6419  -18.9463   18.8367 H   0  0  0  0  0  0  0  0  0  0  0  0
   -4.2909  -19.0619   18.8112 H   0  0  0  0  0  0  0  0  0  0  0  0
   -4.5381  -17.7445   17.6536 H   0  0  0  0  0  0  0  0  0  0  0  0
   -4.2144  -19.2080   15.7826 H   0  0  0  0  0  0  0  0  0  0  0  0
   -3.0699  -19.8868   16.9403 H   0  0  0  0  0  0  0  0  0  0  0  0
   -4.3959  -21.7963   17.2365 H   0  0  0  0  0  0  0  0  0  0  0  0
   -5.2122  -21.2843   15.7613 H   0  0  0  0  0  0  0  0  0  0  0  0
   -6.1218  -21.1944   18.5621 H   0  0  0  0  0  0  0  0  0  0  0  0
   -7.1233  -21.0486   17.1181 H   0  0  0  0  0  0  0  0  0  0  0  0
   -8.6860  -13.2898   14.0155 H   0  0  0  0  0  0  0  0  0  0  0  0
  -10.2787  -10.8614   14.5868 H   0  0  0  0  0  0  0  0  0  0  0  0
   -8.6196  -10.4751   14.5724 H   0  0  0  0  0  0  0  0  0  0  0  0
   -9.2771  -11.8789   12.1431 H   0  0  0  0  0  0  0  0  0  0  0  0
   -9.9696  -10.2765   12.3795 H   0  0  0  0  0  0  0  0  0  0  0  0
   -5.8399   -9.3602    9.8769 H   0  0  0  0  0  0  0  0  0  0  0  0
   -5.2775   -8.3036   12.3816 H   0  0  0  0  0  0  0  0  0  0  0  0
   -7.1180   -9.2181   13.8645 H   0  0  0  0  0  0  0  0  0  0  0  0
  1  2  2  0
  2  3  1  0
  3  4  1  0
  4  5  1  0
  5  6  2  0
  6  7  1  0
  7  8  1  0
  8  9  1  0
  9 10  1  0
 10 11  1  0
 11 12  1  0
  7 13  1  0
  2 14  1  0
 14 15  1  0
 15 16  1  0
 16 17  1  0
 17 18  2  0
 18 19  1  0
 19 20  2  0
 20 21  1  0
 13  4  2  0
 21 17  1  0
 12  8  1  0
  3 22  1  0
  3 23  1  0
  5 24  1  0
  6 25  1  0
  8 26  1  0
  9 27  1  0
  9 28  1  0
 10 29  1  0
 10 30  1  0
 11 31  1  0
 11 32  1  0
 12 33  1  0
 12 34  1  0
 14 35  1  0
 15 36  1  0
 15 37  1  0
 16 38  1  0
 16 39  1  0
 19 40  1  0
 20 41  1  0
 21 42  1  0
M  END
>  <Energy>  (706) 
209.11737509581309

>  <compound_id>  (706) 
17997

>  <target_id>  (706) 
1

>  <reference_id>  (706) 
64

>  <inspiration_ids>  (706) 
[99, 64]

>  <energy_score>  (706) 
159.29581642321517

>  <distance_score>  (706) 
13.00652208177421

>  <path>  (706) 
/opt/xchem-fragalysis-2/maxwin/BulkDock/SCRATCH/511025/C17997-P64/C17997-P64.minimised.mol

>  <scratch_subdir>  (706) 
/opt/xchem-fragalysis-2/maxwin/BulkDock/SCRATCH/511025/C17997-P64

>  <fragmenstein_runtime>  (706) 
19.13337278366089

>  <fragmenstein_outcome>  (706) 
too moved

>  <fragmenstein_mode>  (706) 
expansion

>  <fragmenstein_error>  (706) 


$$$$
C48747-P99
     RDKit          3D

 45 47  0  0  0  0  0  0  0  0999 V2000
    0.3315  -12.0703   14.7471 C   0  0  0  0  0  0  0  0  0  0  0  0
   -0.6993  -13.1283   14.8906 N   0  0  0  0  0  0  0  0  0  0  0  0
   -1.0279  -12.6784   13.3642 C   0  0  0  0  0  0  0  0  0  0  0  0
   -1.9321  -11.3602   13.1451 C   0  0  0  0  0  0  0  0  0  0  0  0
   -1.5858  -10.3246   12.0926 C   0  0  0  0  0  0  0  0  0  0  0  0
   -1.4386  -10.4390   10.7238 C   0  0  0  0  0  0  0  0  0  0  0  0
   -1.3089   -9.1568   10.2465 N   0  0  0  0  0  0  0  0  0  0  0  0
   -1.3999   -8.3097   11.3113 C   0  0  0  0  0  0  0  0  0  0  0  0
   -1.5639   -8.9759   12.4322 N   0  0  0  0  0  0  0  0  0  0  0  0
   -0.5616  -14.6013   14.9789 C   0  0  0  0  0  0  0  0  0  0  0  0
    0.4136  -15.3035   14.8652 O   0  0  0  0  0  0  0  0  0  0  0  0
   -1.9094  -15.2631   15.3818 C   0  0  0  0  0  0  0  0  0  0  0  0
   -2.0052  -16.4487   16.3720 C   0  0  0  0  0  0  0  0  0  0  0  0
   -1.2435  -16.7574   17.5327 C   0  0  0  0  0  0  0  0  0  0  0  0
   -1.8863  -17.8127   18.1485 C   0  0  0  0  0  0  0  0  0  0  0  0
   -2.9664  -18.1019   17.3682 N   0  0  0  0  0  0  0  0  0  0  0  0
   -3.9466  -19.1552   17.5614 C   0  0  0  0  0  0  0  0  0  0  0  0
   -3.3401  -20.5694   17.5184 C   0  0  0  0  0  0  0  0  0  0  0  0
   -3.6158  -21.1745   18.8903 C   0  0  0  0  0  0  0  0  0  0  0  0
   -4.9040  -20.5009   19.3300 C   0  0  0  0  0  0  0  0  0  0  0  0
   -4.7000  -19.0573   18.8970 C   0  0  0  0  0  0  0  0  0  0  0  0
   -3.0700  -17.2830   16.2969 N   0  0  0  0  0  0  0  0  0  0  0  0
    0.8278  -12.0778   15.7286 H   0  0  0  0  0  0  0  0  0  0  0  0
   -0.0301  -11.0426   14.6549 H   0  0  0  0  0  0  0  0  0  0  0  0
    1.1551  -12.3340   14.0688 H   0  0  0  0  0  0  0  0  0  0  0  0
   -1.6705  -13.5022   13.0162 H   0  0  0  0  0  0  0  0  0  0  0  0
   -0.1684  -12.7506   12.6781 H   0  0  0  0  0  0  0  0  0  0  0  0
   -2.0268  -10.8293   14.0982 H   0  0  0  0  0  0  0  0  0  0  0  0
   -2.9400  -11.7112   12.8897 H   0  0  0  0  0  0  0  0  0  0  0  0
   -1.4483  -11.2920   10.0602 H   0  0  0  0  0  0  0  0  0  0  0  0
   -1.1904   -8.8780    9.2819 H   0  0  0  0  0  0  0  0  0  0  0  0
   -1.3422   -7.2351   11.2056 H   0  0  0  0  0  0  0  0  0  0  0  0
   -2.3476  -15.5929   14.4335 H   0  0  0  0  0  0  0  0  0  0  0  0
   -2.5280  -14.4898   15.8373 H   0  0  0  0  0  0  0  0  0  0  0  0
   -0.3551  -16.2502   17.8821 H   0  0  0  0  0  0  0  0  0  0  0  0
   -1.6627  -18.3619   19.0520 H   0  0  0  0  0  0  0  0  0  0  0  0
   -4.6695  -19.0654   16.7392 H   0  0  0  0  0  0  0  0  0  0  0  0
   -3.8595  -21.1596   16.7530 H   0  0  0  0  0  0  0  0  0  0  0  0
   -2.2728  -20.5920   17.2754 H   0  0  0  0  0  0  0  0  0  0  0  0
   -2.8030  -20.9232   19.5818 H   0  0  0  0  0  0  0  0  0  0  0  0
   -3.7067  -22.2638   18.8521 H   0  0  0  0  0  0  0  0  0  0  0  0
   -5.7620  -20.9376   18.8055 H   0  0  0  0  0  0  0  0  0  0  0  0
   -5.0764  -20.5914   20.4062 H   0  0  0  0  0  0  0  0  0  0  0  0
   -4.1179  -18.5265   19.6592 H   0  0  0  0  0  0  0  0  0  0  0  0
   -5.6521  -18.5296   18.7879 H   0  0  0  0  0  0  0  0  0  0  0  0
  1  2  1  0
  2  3  1  0
  3  4  1  0
  4  5  1  0
  5  6  2  0
  6  7  1  0
  7  8  1  0
  8  9  2  0
  2 10  1  0
 10 11  2  0
 10 12  1  0
 12 13  1  0
 13 14  1  0
 14 15  2  0
 15 16  1  0
 16 17  1  0
 17 18  1  0
 18 19  1  0
 19 20  1  0
 20 21  1  0
 16 22  1  0
  9  5  1  0
 22 13  2  0
 21 17  1  0
  1 23  1  0
  1 24  1  0
  1 25  1  0
  3 26  1  0
  3 27  1  0
  4 28  1  0
  4 29  1  0
  6 30  1  0
  7 31  1  0
  8 32  1  0
 12 33  1  0
 12 34  1  0
 14 35  1  0
 15 36  1  0
 17 37  1  0
 18 38  1  0
 18 39  1  0
 19 40  1  0
 19 41  1  0
 20 42  1  0
 20 43  1  0
 21 44  1  0
 21 45  1  0
M  END
>  <Energy>  (707) 
121.47972653121282

>  <compound_id>  (707) 
48747

>  <target_id>  (707) 
1

>  <reference_id>  (707) 
99

>  <inspiration_ids>  (707) 
[99, 64]

>  <energy_score>  (707) 
53.80571165199058

>  <distance_score>  (707) 
14.299696487979102

>  <path>  (707) 
/opt/xchem-fragalysis-2/maxwin/BulkDock/SCRATCH/511025/C48747-P99/C48747-P99.minimised.mol

>  <scratch_subdir>  (707) 
/opt/xchem-fragalysis-2/maxwin/BulkDock/SCRATCH/511025/C48747-P99

>  <fragmenstein_runtime>  (707) 
36.921881914138794

>  <fragmenstein_outcome>  (707) 
too moved

>  <fragmenstein_mode>  (707) 
expansion

>  <fragmenstein_error>  (707) 


$$$$
C48747-P64
     RDKit          3D

 45 47  0  0  0  0  0  0  0  0999 V2000
   -8.1683  -14.2504   20.2663 C   0  0  0  0  0  0  0  0  0  0  0  0
   -7.7134  -16.1404   20.3439 N   0  0  0  0  0  0  0  0  0  0  0  0
   -8.8696  -15.4399   19.0439 C   0  0  0  0  0  0  0  0  0  0  0  0
   -8.2828  -13.4994   18.3464 C   0  0  0  0  0  0  0  0  0  0  0  0
   -7.1235  -12.2459   18.2403 C   0  0  0  0  0  0  0  0  0  0  0  0
   -5.7785  -12.2265   18.3493 C   0  0  0  0  0  0  0  0  0  0  0  0
   -5.1992  -11.2289   17.5572 N   0  0  0  0  0  0  0  0  0  0  0  0
   -6.1646  -10.5147   16.9576 C   0  0  0  0  0  0  0  0  0  0  0  0
   -7.2500  -11.0956   17.4422 N   0  0  0  0  0  0  0  0  0  0  0  0
   -7.8530  -17.3599   21.6081 C   0  0  0  0  0  0  0  0  0  0  0  0
   -8.2012  -16.8775   22.5627 O   0  0  0  0  0  0  0  0  0  0  0  0
   -7.5385  -19.0711   21.9289 C   0  0  0  0  0  0  0  0  0  0  0  0
   -8.0407  -19.5019   23.8014 C   0  0  0  0  0  0  0  0  0  0  0  0
   -6.8351  -19.7401   25.4841 C   0  0  0  0  0  0  0  0  0  0  0  0
   -7.7606  -20.9004   26.7217 C   0  0  0  0  0  0  0  0  0  0  0  0
   -9.7753  -20.6589   26.3916 N   0  0  0  0  0  0  0  0  0  0  0  0
  -10.9393  -21.7888   27.2078 C   0  0  0  0  0  0  0  0  0  0  0  0
  -10.6890  -23.3725   27.1690 C   0  0  0  0  0  0  0  0  0  0  0  0
  -11.7497  -23.9490   28.0682 C   0  0  0  0  0  0  0  0  0  0  0  0
  -11.8264  -22.9737   29.2153 C   0  0  0  0  0  0  0  0  0  0  0  0
  -11.3019  -21.6311   28.7027 C   0  0  0  0  0  0  0  0  0  0  0  0
   -9.8583  -20.0037   24.3832 N   0  0  0  0  0  0  0  0  0  0  0  0
   -7.1339  -13.8578   20.2308 H   0  0  0  0  0  0  0  0  0  0  0  0
   -9.0783  -13.6779   20.4764 H   0  0  0  0  0  0  0  0  0  0  0  0
   -7.7556  -13.3055   19.9216 H   0  0  0  0  0  0  0  0  0  0  0  0
   -8.4565  -15.9126   18.1113 H   0  0  0  0  0  0  0  0  0  0  0  0
   -9.9274  -15.5512   19.1701 H   0  0  0  0  0  0  0  0  0  0  0  0
   -7.8535  -13.6920   17.3598 H   0  0  0  0  0  0  0  0  0  0  0  0
   -9.1618  -12.8195   18.4870 H   0  0  0  0  0  0  0  0  0  0  0  0
   -5.2130  -12.4134   19.2392 H   0  0  0  0  0  0  0  0  0  0  0  0
   -4.2221  -10.9539   17.6311 H   0  0  0  0  0  0  0  0  0  0  0  0
   -6.0590   -9.6396   16.3278 H   0  0  0  0  0  0  0  0  0  0  0  0
   -8.1802  -19.7473   21.3644 H   0  0  0  0  0  0  0  0  0  0  0  0
   -6.4672  -19.2792   21.9257 H   0  0  0  0  0  0  0  0  0  0  0  0
   -5.7669  -19.8427   25.2865 H   0  0  0  0  0  0  0  0  0  0  0  0
   -7.5292  -21.7511   27.3573 H   0  0  0  0  0  0  0  0  0  0  0  0
  -11.6757  -21.5992   26.4719 H   0  0  0  0  0  0  0  0  0  0  0  0
   -9.7091  -23.6407   27.5829 H   0  0  0  0  0  0  0  0  0  0  0  0
  -10.7929  -23.8128   26.1715 H   0  0  0  0  0  0  0  0  0  0  0  0
  -11.4815  -24.9563   28.3957 H   0  0  0  0  0  0  0  0  0  0  0  0
  -12.7030  -24.0073   27.5370 H   0  0  0  0  0  0  0  0  0  0  0  0
  -12.8474  -22.8783   29.5731 H   0  0  0  0  0  0  0  0  0  0  0  0
  -11.2479  -23.3323   30.0709 H   0  0  0  0  0  0  0  0  0  0  0  0
  -12.0656  -20.8899   28.9076 H   0  0  0  0  0  0  0  0  0  0  0  0
  -10.4668  -21.3153   29.3083 H   0  0  0  0  0  0  0  0  0  0  0  0
  1  2  1  0
  2  3  1  0
  3  4  1  0
  4  5  1  0
  5  6  2  0
  6  7  1  0
  7  8  1  0
  8  9  2  0
  2 10  1  0
 10 11  2  0
 10 12  1  0
 12 13  1  0
 13 14  1  0
 14 15  2  0
 15 16  1  0
 16 17  1  0
 17 18  1  0
 18 19  1  0
 19 20  1  0
 20 21  1  0
 16 22  1  0
  9  5  1  0
 22 13  2  0
 21 17  1  0
  1 23  1  0
  1 24  1  0
  1 25  1  0
  3 26  1  0
  3 27  1  0
  4 28  1  0
  4 29  1  0
  6 30  1  0
  7 31  1  0
  8 32  1  0
 12 33  1  0
 12 34  1  0
 14 35  1  0
 15 36  1  0
 17 37  1  0
 18 38  1  0
 18 39  1  0
 19 40  1  0
 19 41  1  0
 20 42  1  0
 20 43  1  0
 21 44  1  0
 21 45  1  0
M  END
>  <Energy>  (708) 
1571.5439995001486

>  <compound_id>  (708) 
48747

>  <target_id>  (708) 
1

>  <reference_id>  (708) 
64

>  <inspiration_ids>  (708) 
[99, 64]

>  <energy_score>  (708) 
1503.869984620943

>  <distance_score>  (708) 
12.911898390369137

>  <path>  (708) 
/opt/xchem-fragalysis-2/maxwin/BulkDock/SCRATCH/511025/C48747-P64/C48747-P64.minimised.mol

>  <scratch_subdir>  (708) 
/opt/xchem-fragalysis-2/maxwin/BulkDock/SCRATCH/511025/C48747-P64

>  <fragmenstein_runtime>  (708) 
18.2783784866333

>  <fragmenstein_outcome>  (708) 
too moved

>  <fragmenstein_mode>  (708) 
expansion

>  <fragmenstein_error>  (708) 


$$$$
C48748-P99
     RDKit          3D

 40 42  0  0  0  0  0  0  0  0999 V2000
  -12.0801   -5.7026   14.7541 O   0  0  0  0  0  0  0  0  0  0  0  0
  -11.2072   -6.3991   15.1262 C   0  0  0  0  0  0  0  0  0  0  0  0
  -11.1503   -7.9779   15.2854 N   0  0  0  0  0  0  0  0  0  0  0  0
  -12.0910   -8.9637   14.9367 C   0  0  0  0  0  0  0  0  0  0  0  0
  -13.0703   -8.8681   13.9112 C   0  0  0  0  0  0  0  0  0  0  0  0
  -13.7674  -10.0077   13.7230 N   0  0  0  0  0  0  0  0  0  0  0  0
  -13.3696  -10.8604   14.7608 N   0  0  0  0  0  0  0  0  0  0  0  0
  -14.3914  -11.8816   15.4122 C   0  0  0  0  0  0  0  0  0  0  0  0
  -14.7742  -11.6514   16.9170 C   0  0  0  0  0  0  0  0  0  0  0  0
  -15.6058  -12.8605   17.4357 C   0  0  0  0  0  0  0  0  0  0  0  0
  -15.1145  -14.1290   16.7844 C   0  0  0  0  0  0  0  0  0  0  0  0
  -14.4346  -13.5875   15.4374 C   0  0  0  0  0  0  0  0  0  0  0  0
  -12.1840  -10.2909   15.3119 C   0  0  0  0  0  0  0  0  0  0  0  0
   -9.7887   -5.7203   15.4392 C   0  0  0  0  0  0  0  0  0  0  0  0
   -9.9277   -5.1904   16.7690 O   0  0  0  0  0  0  0  0  0  0  0  0
   -9.3243   -4.5257   14.3824 C   0  0  0  0  0  0  0  0  0  0  0  0
   -8.0419   -3.8894   14.7731 C   0  0  0  0  0  0  0  0  0  0  0  0
   -7.7919   -2.5403   14.8924 C   0  0  0  0  0  0  0  0  0  0  0  0
   -6.7278   -2.4674   15.7442 N   0  0  0  0  0  0  0  0  0  0  0  0
   -6.2916   -3.7425   15.9729 C   0  0  0  0  0  0  0  0  0  0  0  0
   -7.0394   -4.6251   15.3556 N   0  0  0  0  0  0  0  0  0  0  0  0
  -10.2701   -8.2453   15.7116 H   0  0  0  0  0  0  0  0  0  0  0  0
  -13.2996   -8.0154   13.2857 H   0  0  0  0  0  0  0  0  0  0  0  0
  -15.2885  -11.6236   14.8270 H   0  0  0  0  0  0  0  0  0  0  0  0
  -15.4031  -10.7528   16.9788 H   0  0  0  0  0  0  0  0  0  0  0  0
  -13.8775  -11.3724   17.4599 H   0  0  0  0  0  0  0  0  0  0  0  0
  -15.6905  -12.8168   18.5076 H   0  0  0  0  0  0  0  0  0  0  0  0
  -16.6351  -12.7007   17.0823 H   0  0  0  0  0  0  0  0  0  0  0  0
  -14.4999  -14.6806   17.4729 H   0  0  0  0  0  0  0  0  0  0  0  0
  -15.9498  -14.7902   16.5275 H   0  0  0  0  0  0  0  0  0  0  0  0
  -15.1185  -13.8522   14.6173 H   0  0  0  0  0  0  0  0  0  0  0  0
  -13.4903  -14.0431   15.1291 H   0  0  0  0  0  0  0  0  0  0  0  0
  -11.6547  -10.8713   16.0538 H   0  0  0  0  0  0  0  0  0  0  0  0
   -9.0140   -6.4921   15.4677 H   0  0  0  0  0  0  0  0  0  0  0  0
  -10.5631   -4.4545   16.7014 H   0  0  0  0  0  0  0  0  0  0  0  0
  -10.1066   -3.7595   14.4542 H   0  0  0  0  0  0  0  0  0  0  0  0
   -9.3073   -4.8546   13.3527 H   0  0  0  0  0  0  0  0  0  0  0  0
   -8.3588   -1.6659   14.6089 H   0  0  0  0  0  0  0  0  0  0  0  0
   -6.3261   -1.6217   16.1260 H   0  0  0  0  0  0  0  0  0  0  0  0
   -5.4336   -3.9599   16.5945 H   0  0  0  0  0  0  0  0  0  0  0  0
  1  2  2  0
  2  3  1  0
  3  4  1  0
  4  5  1  0
  5  6  2  0
  6  7  1  0
  7  8  1  0
  8  9  1  0
  9 10  1  0
 10 11  1  0
 11 12  1  0
  7 13  1  0
  2 14  1  0
 14 15  1  0
 14 16  1  0
 16 17  1  0
 17 18  2  0
 18 19  1  0
 19 20  1  0
 20 21  2  0
 13  4  2  0
 21 17  1  0
 12  8  1  0
  3 22  1  0
  5 23  1  0
  8 24  1  0
  9 25  1  0
  9 26  1  0
 10 27  1  0
 10 28  1  0
 11 29  1  0
 11 30  1  0
 12 31  1  0
 12 32  1  0
 13 33  1  0
 14 34  1  0
 15 35  1  0
 16 36  1  0
 16 37  1  0
 18 38  1  0
 19 39  1  0
 20 40  1  0
M  END
>  <Energy>  (709) 
121.98809439156346

>  <compound_id>  (709) 
48748

>  <target_id>  (709) 
1

>  <reference_id>  (709) 
99

>  <inspiration_ids>  (709) 
[99, 64]

>  <energy_score>  (709) 
41.378094268500604

>  <distance_score>  (709) 
13.599120348097397

>  <path>  (709) 
/opt/xchem-fragalysis-2/maxwin/BulkDock/SCRATCH/511025/C48748-P99/C48748-P99.minimised.mol

>  <scratch_subdir>  (709) 
/opt/xchem-fragalysis-2/maxwin/BulkDock/SCRATCH/511025/C48748-P99

>  <fragmenstein_runtime>  (709) 
28.781617879867554

>  <fragmenstein_outcome>  (709) 
too moved

>  <fragmenstein_mode>  (709) 
expansion

>  <fragmenstein_error>  (709) 


$$$$
C48748-P64
     RDKit          3D

 40 42  0  0  0  0  0  0  0  0999 V2000
   -8.5204  -10.1497   16.6760 O   0  0  0  0  0  0  0  0  0  0  0  0
   -7.4544  -10.5913   17.0098 C   0  0  0  0  0  0  0  0  0  0  0  0
   -7.1173  -11.6581   17.9476 N   0  0  0  0  0  0  0  0  0  0  0  0
   -7.9196  -12.5250   18.6500 C   0  0  0  0  0  0  0  0  0  0  0  0
   -9.2271  -12.7249   18.7238 C   0  0  0  0  0  0  0  0  0  0  0  0
   -9.5783  -13.6541   19.7122 N   0  0  0  0  0  0  0  0  0  0  0  0
   -8.5210  -15.0532   20.3035 N   0  0  0  0  0  0  0  0  0  0  0  0
   -8.1744  -16.3236   21.9501 C   0  0  0  0  0  0  0  0  0  0  0  0
   -8.1003  -18.1841   22.2258 C   0  0  0  0  0  0  0  0  0  0  0  0
   -9.6862  -18.6989   23.4158 C   0  0  0  0  0  0  0  0  0  0  0  0
  -10.3548  -17.2298   24.3888 C   0  0  0  0  0  0  0  0  0  0  0  0
   -9.6710  -16.1096   23.6947 C   0  0  0  0  0  0  0  0  0  0  0  0
   -7.7463  -13.5978   19.5053 C   0  0  0  0  0  0  0  0  0  0  0  0
   -6.1501  -10.0696   16.3031 C   0  0  0  0  0  0  0  0  0  0  0  0
   -5.1055   -9.9017   17.2676 O   0  0  0  0  0  0  0  0  0  0  0  0
   -6.3859   -8.7644   15.4708 C   0  0  0  0  0  0  0  0  0  0  0  0
   -5.2183   -8.3997   14.6031 C   0  0  0  0  0  0  0  0  0  0  0  0
   -5.1801   -8.0304   13.2735 C   0  0  0  0  0  0  0  0  0  0  0  0
   -3.8552   -7.8461   12.9898 N   0  0  0  0  0  0  0  0  0  0  0  0
   -3.1514   -8.0843   14.1363 C   0  0  0  0  0  0  0  0  0  0  0  0
   -3.9439   -8.4203   15.1289 N   0  0  0  0  0  0  0  0  0  0  0  0
   -6.1067  -11.7070   18.0460 H   0  0  0  0  0  0  0  0  0  0  0  0
  -10.0172  -12.1868   18.1981 H   0  0  0  0  0  0  0  0  0  0  0  0
   -7.7983  -16.7794   21.0484 H   0  0  0  0  0  0  0  0  0  0  0  0
   -7.1436  -18.3641   22.7710 H   0  0  0  0  0  0  0  0  0  0  0  0
   -7.7622  -18.7354   21.3385 H   0  0  0  0  0  0  0  0  0  0  0  0
  -10.2901  -19.6948   23.3571 H   0  0  0  0  0  0  0  0  0  0  0  0
   -9.0110  -19.3019   23.8573 H   0  0  0  0  0  0  0  0  0  0  0  0
  -11.4371  -17.0184   24.4294 H   0  0  0  0  0  0  0  0  0  0  0  0
  -10.0857  -17.1391   25.4555 H   0  0  0  0  0  0  0  0  0  0  0  0
  -10.6328  -15.5304   23.5342 H   0  0  0  0  0  0  0  0  0  0  0  0
   -9.2257  -15.7126   24.6809 H   0  0  0  0  0  0  0  0  0  0  0  0
   -8.0904  -14.3062   18.7008 H   0  0  0  0  0  0  0  0  0  0  0  0
   -5.8332  -10.8702   15.6222 H   0  0  0  0  0  0  0  0  0  0  0  0
   -4.4121   -9.3771   16.8052 H   0  0  0  0  0  0  0  0  0  0  0  0
   -7.2761   -8.8817   14.8417 H   0  0  0  0  0  0  0  0  0  0  0  0
   -6.5738   -7.9303   16.1578 H   0  0  0  0  0  0  0  0  0  0  0  0
   -5.9514   -7.9177   12.5261 H   0  0  0  0  0  0  0  0  0  0  0  0
   -3.4598   -7.5979   12.0928 H   0  0  0  0  0  0  0  0  0  0  0  0
   -2.0732   -8.0031   14.1829 H   0  0  0  0  0  0  0  0  0  0  0  0
  1  2  2  0
  2  3  1  0
  3  4  1  0
  4  5  1  0
  5  6  2  0
  6  7  1  0
  7  8  1  0
  8  9  1  0
  9 10  1  0
 10 11  1  0
 11 12  1  0
  7 13  1  0
  2 14  1  0
 14 15  1  0
 14 16  1  0
 16 17  1  0
 17 18  2  0
 18 19  1  0
 19 20  1  0
 20 21  2  0
 13  4  2  0
 21 17  1  0
 12  8  1  0
  3 22  1  0
  5 23  1  0
  8 24  1  0
  9 25  1  0
  9 26  1  0
 10 27  1  0
 10 28  1  0
 11 29  1  0
 11 30  1  0
 12 31  1  0
 12 32  1  0
 13 33  1  0
 14 34  1  0
 15 35  1  0
 16 36  1  0
 16 37  1  0
 18 38  1  0
 19 39  1  0
 20 40  1  0
M  END
>  <Energy>  (710) 
993.87325328128236

>  <compound_id>  (710) 
48748

>  <target_id>  (710) 
1

>  <reference_id>  (710) 
64

>  <inspiration_ids>  (710) 
[99, 64]

>  <energy_score>  (710) 
910.1196977802501

>  <distance_score>  (710) 
12.51622053504025

>  <path>  (710) 
/opt/xchem-fragalysis-2/maxwin/BulkDock/SCRATCH/511025/C48748-P64/C48748-P64.minimised.mol

>  <scratch_subdir>  (710) 
/opt/xchem-fragalysis-2/maxwin/BulkDock/SCRATCH/511025/C48748-P64

>  <fragmenstein_runtime>  (710) 
27.4977068901062

>  <fragmenstein_outcome>  (710) 
too moved

>  <fragmenstein_mode>  (710) 
expansion

>  <fragmenstein_error>  (710) 


$$$$
C48749-P99
     RDKit          3D

 41 43  0  0  0  0  0  0  0  0999 V2000
   -9.1142   -9.9987    9.7622 C   0  0  0  0  0  0  0  0  0  0  0  0
   -9.8177   -9.9405   11.0693 N   0  0  0  0  0  0  0  0  0  0  0  0
   -9.2519   -8.1891   11.0035 C   0  0  0  0  0  0  0  0  0  0  0  0
  -10.0151   -5.9518   11.3058 C   0  0  0  0  0  0  0  0  0  0  0  0
   -9.7725   -4.8315   10.5068 C   0  0  0  0  0  0  0  0  0  0  0  0
   -9.8910   -3.9704   11.4489 N   0  0  0  0  0  0  0  0  0  0  0  0
   -9.3778   -4.3382   12.7084 C   0  0  0  0  0  0  0  0  0  0  0  0
  -10.0540   -5.3808   12.8899 N   0  0  0  0  0  0  0  0  0  0  0  0
  -11.1832  -10.5314   10.9378 C   0  0  0  0  0  0  0  0  0  0  0  0
  -12.2217  -10.0223   10.6705 O   0  0  0  0  0  0  0  0  0  0  0  0
  -10.8374  -11.9817   11.2121 N   0  0  0  0  0  0  0  0  0  0  0  0
  -11.6560  -13.1120   11.3200 C   0  0  0  0  0  0  0  0  0  0  0  0
  -13.0176  -13.3282   11.3503 C   0  0  0  0  0  0  0  0  0  0  0  0
  -13.1890  -14.5996   11.9687 C   0  0  0  0  0  0  0  0  0  0  0  0
  -12.0300  -15.2132   12.2130 N   0  0  0  0  0  0  0  0  0  0  0  0
  -11.1244  -14.3621   11.6695 N   0  0  0  0  0  0  0  0  0  0  0  0
   -9.7788  -14.8135   11.3816 C   0  0  0  0  0  0  0  0  0  0  0  0
   -9.6275  -16.3124   11.1058 C   0  0  0  0  0  0  0  0  0  0  0  0
   -8.1234  -16.5057   11.1730 C   0  0  0  0  0  0  0  0  0  0  0  0
   -7.6879  -15.6205   12.3343 C   0  0  0  0  0  0  0  0  0  0  0  0
   -8.7641  -14.5425   12.4911 C   0  0  0  0  0  0  0  0  0  0  0  0
   -8.0229  -10.0568    9.8729 H   0  0  0  0  0  0  0  0  0  0  0  0
   -9.3380  -10.9940    9.3478 H   0  0  0  0  0  0  0  0  0  0  0  0
   -9.4954   -9.3520    8.9738 H   0  0  0  0  0  0  0  0  0  0  0  0
   -8.5777   -8.6559   11.8954 H   0  0  0  0  0  0  0  0  0  0  0  0
   -8.2536   -8.3446   10.3561 H   0  0  0  0  0  0  0  0  0  0  0  0
   -9.4992   -4.6116    9.4733 H   0  0  0  0  0  0  0  0  0  0  0  0
  -10.2278   -3.0569   11.1402 H   0  0  0  0  0  0  0  0  0  0  0  0
   -8.8618   -3.8002   13.4785 H   0  0  0  0  0  0  0  0  0  0  0  0
   -9.8676  -12.0477   11.4882 H   0  0  0  0  0  0  0  0  0  0  0  0
  -13.7869  -12.6012   11.1289 H   0  0  0  0  0  0  0  0  0  0  0  0
  -14.1157  -15.0778   12.2575 H   0  0  0  0  0  0  0  0  0  0  0  0
   -9.4609  -14.2777   10.4757 H   0  0  0  0  0  0  0  0  0  0  0  0
  -10.0404  -16.6009   10.1343 H   0  0  0  0  0  0  0  0  0  0  0  0
  -10.1124  -16.9235   11.8767 H   0  0  0  0  0  0  0  0  0  0  0  0
   -7.6573  -16.1582   10.2434 H   0  0  0  0  0  0  0  0  0  0  0  0
   -7.8420  -17.5523   11.3193 H   0  0  0  0  0  0  0  0  0  0  0  0
   -7.6201  -16.2113   13.2532 H   0  0  0  0  0  0  0  0  0  0  0  0
   -6.7013  -15.1851   12.1468 H   0  0  0  0  0  0  0  0  0  0  0  0
   -8.3338  -13.5396   12.4006 H   0  0  0  0  0  0  0  0  0  0  0  0
   -9.2221  -14.6045   13.4834 H   0  0  0  0  0  0  0  0  0  0  0  0
  1  2  1  0
  2  3  1  0
  3  4  1  0
  4  5  2  0
  5  6  1  0
  6  7  1  0
  7  8  2  0
  2  9  1  0
  9 10  2  0
  9 11  1  0
 11 12  1  0
 12 13  2  0
 13 14  1  0
 14 15  2  0
 15 16  1  0
 16 17  1  0
 17 18  1  0
 18 19  1  0
 19 20  1  0
 20 21  1  0
  8  4  1  0
 16 12  1  0
 21 17  1  0
  1 22  1  0
  1 23  1  0
  1 24  1  0
  3 25  1  0
  3 26  1  0
  5 27  1  0
  6 28  1  0
  7 29  1  0
 11 30  1  0
 13 31  1  0
 14 32  1  0
 17 33  1  0
 18 34  1  0
 18 35  1  0
 19 36  1  0
 19 37  1  0
 20 38  1  0
 20 39  1  0
 21 40  1  0
 21 41  1  0
M  END
>  <Energy>  (711) 
558.21234212420131

>  <compound_id>  (711) 
48749

>  <target_id>  (711) 
1

>  <reference_id>  (711) 
99

>  <inspiration_ids>  (711) 
[99, 64]

>  <energy_score>  (711) 
544.1375516330313

>  <distance_score>  (711) 
13.897201540069467

>  <path>  (711) 
/opt/xchem-fragalysis-2/maxwin/BulkDock/SCRATCH/511025/C48749-P99/C48749-P99.minimised.mol

>  <scratch_subdir>  (711) 
/opt/xchem-fragalysis-2/maxwin/BulkDock/SCRATCH/511025/C48749-P99

>  <fragmenstein_runtime>  (711) 
35.455039978027344

>  <fragmenstein_outcome>  (711) 
too moved

>  <fragmenstein_mode>  (711) 
expansion

>  <fragmenstein_error>  (711) 


$$$$
C48749-P64
     RDKit          3D

 41 43  0  0  0  0  0  0  0  0999 V2000
  -12.2666  -11.5395   10.6814 C   0  0  0  0  0  0  0  0  0  0  0  0
  -11.9212  -12.9002   10.1366 N   0  0  0  0  0  0  0  0  0  0  0  0
  -11.0075  -12.0555    9.2177 C   0  0  0  0  0  0  0  0  0  0  0  0
   -9.7928  -11.2673    9.7385 C   0  0  0  0  0  0  0  0  0  0  0  0
   -8.9617  -11.4714   10.8225 C   0  0  0  0  0  0  0  0  0  0  0  0
   -8.0104  -10.4910   10.7786 N   0  0  0  0  0  0  0  0  0  0  0  0
   -8.2558   -9.7506    9.6691 C   0  0  0  0  0  0  0  0  0  0  0  0
   -9.3478  -10.1523    9.0529 N   0  0  0  0  0  0  0  0  0  0  0  0
  -11.5776  -13.8292   11.2489 C   0  0  0  0  0  0  0  0  0  0  0  0
  -10.5375  -14.0666   11.7420 O   0  0  0  0  0  0  0  0  0  0  0  0
  -12.9325  -14.3516   11.5668 N   0  0  0  0  0  0  0  0  0  0  0  0
  -13.3368  -15.3259   12.4652 C   0  0  0  0  0  0  0  0  0  0  0  0
  -12.5955  -16.3439   13.0325 C   0  0  0  0  0  0  0  0  0  0  0  0
  -13.4844  -17.0470   13.8587 C   0  0  0  0  0  0  0  0  0  0  0  0
  -14.6753  -16.4643   13.9368 N   0  0  0  0  0  0  0  0  0  0  0  0
  -14.5995  -15.4670   13.0174 N   0  0  0  0  0  0  0  0  0  0  0  0
  -15.7557  -14.6162   12.7672 C   0  0  0  0  0  0  0  0  0  0  0  0
  -17.1092  -15.3285   12.8608 C   0  0  0  0  0  0  0  0  0  0  0  0
  -17.5735  -15.1647   14.3090 C   0  0  0  0  0  0  0  0  0  0  0  0
  -16.6924  -14.0849   14.9328 C   0  0  0  0  0  0  0  0  0  0  0  0
  -15.8906  -13.4845   13.7853 C   0  0  0  0  0  0  0  0  0  0  0  0
  -11.5209  -11.1032   11.3496 H   0  0  0  0  0  0  0  0  0  0  0  0
  -13.1287  -11.7118   11.3407 H   0  0  0  0  0  0  0  0  0  0  0  0
  -12.6849  -10.8238    9.9566 H   0  0  0  0  0  0  0  0  0  0  0  0
  -11.5864  -11.4908    8.4689 H   0  0  0  0  0  0  0  0  0  0  0  0
  -10.5361  -12.8465    8.6131 H   0  0  0  0  0  0  0  0  0  0  0  0
   -8.9661  -12.2120   11.6075 H   0  0  0  0  0  0  0  0  0  0  0  0
   -7.2501  -10.3610   11.4312 H   0  0  0  0  0  0  0  0  0  0  0  0
   -7.6109   -8.9395    9.3635 H   0  0  0  0  0  0  0  0  0  0  0  0
  -13.6155  -13.8713   10.9982 H   0  0  0  0  0  0  0  0  0  0  0  0
  -11.5587  -16.5651   12.8184 H   0  0  0  0  0  0  0  0  0  0  0  0
  -13.3261  -17.9310   14.4434 H   0  0  0  0  0  0  0  0  0  0  0  0
  -15.6301  -14.2146   11.7559 H   0  0  0  0  0  0  0  0  0  0  0  0
  -17.8283  -14.8223   12.2042 H   0  0  0  0  0  0  0  0  0  0  0  0
  -17.0759  -16.3793   12.5552 H   0  0  0  0  0  0  0  0  0  0  0  0
  -18.6312  -14.8820   14.3430 H   0  0  0  0  0  0  0  0  0  0  0  0
  -17.4730  -16.1043   14.8633 H   0  0  0  0  0  0  0  0  0  0  0  0
  -17.2838  -13.3255   15.4540 H   0  0  0  0  0  0  0  0  0  0  0  0
  -16.0177  -14.5323   15.6712 H   0  0  0  0  0  0  0  0  0  0  0  0
  -16.4597  -12.6583   13.3414 H   0  0  0  0  0  0  0  0  0  0  0  0
  -14.9331  -13.0850   14.1303 H   0  0  0  0  0  0  0  0  0  0  0  0
  1  2  1  0
  2  3  1  0
  3  4  1  0
  4  5  2  0
  5  6  1  0
  6  7  1  0
  7  8  2  0
  2  9  1  0
  9 10  2  0
  9 11  1  0
 11 12  1  0
 12 13  2  0
 13 14  1  0
 14 15  2  0
 15 16  1  0
 16 17  1  0
 17 18  1  0
 18 19  1  0
 19 20  1  0
 20 21  1  0
  8  4  1  0
 16 12  1  0
 21 17  1  0
  1 22  1  0
  1 23  1  0
  1 24  1  0
  3 25  1  0
  3 26  1  0
  5 27  1  0
  6 28  1  0
  7 29  1  0
 11 30  1  0
 13 31  1  0
 14 32  1  0
 17 33  1  0
 18 34  1  0
 18 35  1  0
 19 36  1  0
 19 37  1  0
 20 38  1  0
 20 39  1  0
 21 40  1  0
 21 41  1  0
M  END
>  <Energy>  (712) 
73.442503152564456

>  <compound_id>  (712) 
48749

>  <target_id>  (712) 
1

>  <reference_id>  (712) 
64

>  <inspiration_ids>  (712) 
[99, 64]

>  <energy_score>  (712) 
59.36771266139823

>  <distance_score>  (712) 
13.828245390416173

>  <path>  (712) 
/opt/xchem-fragalysis-2/maxwin/BulkDock/SCRATCH/511025/C48749-P64/C48749-P64.minimised.mol

>  <scratch_subdir>  (712) 
/opt/xchem-fragalysis-2/maxwin/BulkDock/SCRATCH/511025/C48749-P64

>  <fragmenstein_runtime>  (712) 
40.19378614425659

>  <fragmenstein_outcome>  (712) 
too moved

>  <fragmenstein_mode>  (712) 
expansion

>  <fragmenstein_error>  (712) 


$$$$
C48750-P99
     RDKit          3D

 40 42  0  0  0  0  0  0  0  0999 V2000
   -8.5994  -12.2935    9.3864 C   0  0  0  0  0  0  0  0  0  0  0  0
   -8.7826  -11.5150   10.6132 N   0  0  0  0  0  0  0  0  0  0  0  0
   -8.3944  -10.0662   10.5107 C   0  0  0  0  0  0  0  0  0  0  0  0
   -6.9259   -9.7581   10.3842 C   0  0  0  0  0  0  0  0  0  0  0  0
   -6.0081  -10.1411    9.4261 C   0  0  0  0  0  0  0  0  0  0  0  0
   -4.8216   -9.5726    9.8024 N   0  0  0  0  0  0  0  0  0  0  0  0
   -5.0571   -8.7993   10.8980 C   0  0  0  0  0  0  0  0  0  0  0  0
   -6.3103   -8.8865   11.2710 N   0  0  0  0  0  0  0  0  0  0  0  0
   -8.4079  -12.2941   12.0790 S   0  0  0  0  0  0  0  0  0  0  0  0
   -7.0717  -12.8345   11.9691 O   0  0  0  0  0  0  0  0  0  0  0  0
   -8.7941  -11.4067   13.1542 O   0  0  0  0  0  0  0  0  0  0  0  0
   -9.4614  -13.7411   12.3847 C   0  0  0  0  0  0  0  0  0  0  0  0
  -10.7173  -13.8188   12.9778 C   0  0  0  0  0  0  0  0  0  0  0  0
  -11.0709  -15.1745   12.9825 C   0  0  0  0  0  0  0  0  0  0  0  0
  -10.0896  -15.9457   12.5269 N   0  0  0  0  0  0  0  0  0  0  0  0
   -9.1420  -15.0612   12.1071 N   0  0  0  0  0  0  0  0  0  0  0  0
   -8.0294  -15.5817   11.3181 C   0  0  0  0  0  0  0  0  0  0  0  0
   -8.4459  -16.6442   10.2791 C   0  0  0  0  0  0  0  0  0  0  0  0
   -8.0095  -17.9731   10.8788 C   0  0  0  0  0  0  0  0  0  0  0  0
   -6.7018  -17.6220   11.5641 C   0  0  0  0  0  0  0  0  0  0  0  0
   -6.9663  -16.2592   12.1930 C   0  0  0  0  0  0  0  0  0  0  0  0
   -9.2442  -13.1770    9.4057 H   0  0  0  0  0  0  0  0  0  0  0  0
   -7.5620  -12.6138    9.2626 H   0  0  0  0  0  0  0  0  0  0  0  0
   -8.8905  -11.7077    8.5092 H   0  0  0  0  0  0  0  0  0  0  0  0
   -8.7967   -9.5662   11.3914 H   0  0  0  0  0  0  0  0  0  0  0  0
   -8.9149   -9.6473    9.6427 H   0  0  0  0  0  0  0  0  0  0  0  0
   -6.0777  -10.7788    8.5581 H   0  0  0  0  0  0  0  0  0  0  0  0
   -3.9237   -9.7181    9.3646 H   0  0  0  0  0  0  0  0  0  0  0  0
   -4.2851   -8.2185   11.3838 H   0  0  0  0  0  0  0  0  0  0  0  0
  -11.2935  -12.9770   13.3390 H   0  0  0  0  0  0  0  0  0  0  0  0
  -11.9888  -15.6325   13.3266 H   0  0  0  0  0  0  0  0  0  0  0  0
   -7.6027  -14.7489   10.7575 H   0  0  0  0  0  0  0  0  0  0  0  0
   -7.8864  -16.4742    9.3500 H   0  0  0  0  0  0  0  0  0  0  0  0
   -9.5098  -16.6320   10.0225 H   0  0  0  0  0  0  0  0  0  0  0  0
   -7.8842  -18.7492   10.1184 H   0  0  0  0  0  0  0  0  0  0  0  0
   -8.7428  -18.3265   11.6124 H   0  0  0  0  0  0  0  0  0  0  0  0
   -6.4047  -18.3695   12.3054 H   0  0  0  0  0  0  0  0  0  0  0  0
   -5.8977  -17.5416   10.8229 H   0  0  0  0  0  0  0  0  0  0  0  0
   -6.0458  -15.6682   12.2321 H   0  0  0  0  0  0  0  0  0  0  0  0
   -7.3213  -16.3888   13.2205 H   0  0  0  0  0  0  0  0  0  0  0  0
  1  2  1  0
  2  3  1  0
  3  4  1  0
  4  5  2  0
  5  6  1  0
  6  7  1  0
  7  8  2  0
  2  9  1  0
  9 10  2  0
  9 11  2  0
  9 12  1  0
 12 13  2  0
 13 14  1  0
 14 15  2  0
 15 16  1  0
 16 17  1  0
 17 18  1  0
 18 19  1  0
 19 20  1  0
 20 21  1  0
  8  4  1  0
 16 12  1  0
 21 17  1  0
  1 22  1  0
  1 23  1  0
  1 24  1  0
  3 25  1  0
  3 26  1  0
  5 27  1  0
  6 28  1  0
  7 29  1  0
 13 30  1  0
 14 31  1  0
 17 32  1  0
 18 33  1  0
 18 34  1  0
 19 35  1  0
 19 36  1  0
 20 37  1  0
 20 38  1  0
 21 39  1  0
 21 40  1  0
M  END
>  <Energy>  (713) 
-60.558188606580792

>  <compound_id>  (713) 
48750

>  <target_id>  (713) 
1

>  <reference_id>  (713) 
99

>  <inspiration_ids>  (713) 
[99, 64]

>  <energy_score>  (713) 
-44.06987129816707

>  <distance_score>  (713) 
13.632998741101662

>  <path>  (713) 
/opt/xchem-fragalysis-2/maxwin/BulkDock/SCRATCH/511025/C48750-P99/C48750-P99.minimised.mol

>  <scratch_subdir>  (713) 
/opt/xchem-fragalysis-2/maxwin/BulkDock/SCRATCH/511025/C48750-P99

>  <fragmenstein_runtime>  (713) 
32.35177946090698

>  <fragmenstein_outcome>  (713) 
too moved

>  <fragmenstein_mode>  (713) 
expansion

>  <fragmenstein_error>  (713) 


$$$$
C48750-P64
     RDKit          3D

 40 42  0  0  0  0  0  0  0  0999 V2000
   -2.6932   -7.1876   16.2495 C   0  0  0  0  0  0  0  0  0  0  0  0
   -3.0568   -7.9803   15.0666 N   0  0  0  0  0  0  0  0  0  0  0  0
   -3.9105   -7.1820   14.1004 C   0  0  0  0  0  0  0  0  0  0  0  0
   -3.2058   -6.9742   12.7948 C   0  0  0  0  0  0  0  0  0  0  0  0
   -3.7411   -6.9790   11.5211 C   0  0  0  0  0  0  0  0  0  0  0  0
   -2.6769   -6.8282   10.6790 N   0  0  0  0  0  0  0  0  0  0  0  0
   -1.5540   -6.7664   11.4490 C   0  0  0  0  0  0  0  0  0  0  0  0
   -1.8509   -6.7310   12.7247 N   0  0  0  0  0  0  0  0  0  0  0  0
   -3.6787   -9.5384   15.3767 S   0  0  0  0  0  0  0  0  0  0  0  0
   -4.9665   -9.3256   16.0068 O   0  0  0  0  0  0  0  0  0  0  0  0
   -3.5889  -10.2658   14.1311 O   0  0  0  0  0  0  0  0  0  0  0  0
   -2.7926  -10.5346   16.6193 C   0  0  0  0  0  0  0  0  0  0  0  0
   -2.6134  -10.3611   17.9912 C   0  0  0  0  0  0  0  0  0  0  0  0
   -2.1058  -11.5645   18.4952 C   0  0  0  0  0  0  0  0  0  0  0  0
   -1.8783  -12.4423   17.5244 N   0  0  0  0  0  0  0  0  0  0  0  0
   -2.1762  -11.7612   16.3820 N   0  0  0  0  0  0  0  0  0  0  0  0
   -1.6425  -12.2549   15.1219 C   0  0  0  0  0  0  0  0  0  0  0  0
   -1.0007  -13.6493   15.1585 C   0  0  0  0  0  0  0  0  0  0  0  0
   -0.2545  -13.7146   13.8345 C   0  0  0  0  0  0  0  0  0  0  0  0
    0.2611  -12.2968   13.6000 C   0  0  0  0  0  0  0  0  0  0  0  0
   -0.4958  -11.3955   14.5764 C   0  0  0  0  0  0  0  0  0  0  0  0
   -2.2753   -6.2227   15.9431 H   0  0  0  0  0  0  0  0  0  0  0  0
   -1.9159   -7.6980   16.8240 H   0  0  0  0  0  0  0  0  0  0  0  0
   -3.5630   -7.0037   16.8869 H   0  0  0  0  0  0  0  0  0  0  0  0
   -4.1578   -6.2031   14.5284 H   0  0  0  0  0  0  0  0  0  0  0  0
   -4.8675   -7.6860   13.9214 H   0  0  0  0  0  0  0  0  0  0  0  0
   -4.7513   -7.1159   11.1653 H   0  0  0  0  0  0  0  0  0  0  0  0
   -2.6827   -6.7308    9.6715 H   0  0  0  0  0  0  0  0  0  0  0  0
   -0.5635   -6.7239   11.0190 H   0  0  0  0  0  0  0  0  0  0  0  0
   -2.8753   -9.4814   18.5593 H   0  0  0  0  0  0  0  0  0  0  0  0
   -1.8827  -11.8298   19.5204 H   0  0  0  0  0  0  0  0  0  0  0  0
   -2.4573  -12.2949   14.3971 H   0  0  0  0  0  0  0  0  0  0  0  0
   -1.7413  -14.4489   15.2560 H   0  0  0  0  0  0  0  0  0  0  0  0
   -0.2849  -13.7481   15.9840 H   0  0  0  0  0  0  0  0  0  0  0  0
   -0.9448  -13.9948   13.0298 H   0  0  0  0  0  0  0  0  0  0  0  0
    0.5539  -14.4517   13.8509 H   0  0  0  0  0  0  0  0  0  0  0  0
    1.3393  -12.2335   13.7830 H   0  0  0  0  0  0  0  0  0  0  0  0
    0.0867  -11.9928   12.5622 H   0  0  0  0  0  0  0  0  0  0  0  0
   -0.8512  -10.4837   14.0864 H   0  0  0  0  0  0  0  0  0  0  0  0
    0.1776  -11.0840   15.3852 H   0  0  0  0  0  0  0  0  0  0  0  0
  1  2  1  0
  2  3  1  0
  3  4  1  0
  4  5  2  0
  5  6  1  0
  6  7  1  0
  7  8  2  0
  2  9  1  0
  9 10  2  0
  9 11  2  0
  9 12  1  0
 12 13  2  0
 13 14  1  0
 14 15  2  0
 15 16  1  0
 16 17  1  0
 17 18  1  0
 18 19  1  0
 19 20  1  0
 20 21  1  0
  8  4  1  0
 16 12  1  0
 21 17  1  0
  1 22  1  0
  1 23  1  0
  1 24  1  0
  3 25  1  0
  3 26  1  0
  5 27  1  0
  6 28  1  0
  7 29  1  0
 13 30  1  0
 14 31  1  0
 17 32  1  0
 18 33  1  0
 18 34  1  0
 19 35  1  0
 19 36  1  0
 20 37  1  0
 20 38  1  0
 21 39  1  0
 21 40  1  0
M  END
>  <Energy>  (714) 
-55.390148557662307

>  <compound_id>  (714) 
48750

>  <target_id>  (714) 
1

>  <reference_id>  (714) 
64

>  <inspiration_ids>  (714) 
[99, 64]

>  <energy_score>  (714) 
-38.901831249249085

>  <distance_score>  (714) 
13.97759251773609

>  <path>  (714) 
/opt/xchem-fragalysis-2/maxwin/BulkDock/SCRATCH/511025/C48750-P64/C48750-P64.minimised.mol

>  <scratch_subdir>  (714) 
/opt/xchem-fragalysis-2/maxwin/BulkDock/SCRATCH/511025/C48750-P64

>  <fragmenstein_runtime>  (714) 
23.79941201210022

>  <fragmenstein_outcome>  (714) 
too moved

>  <fragmenstein_mode>  (714) 
expansion

>  <fragmenstein_error>  (714) 


$$$$
C18004-P99
     RDKit          3D

 45 46  0  0  0  0  0  0  0  0999 V2000
  -12.7126  -11.3666   17.6561 C   0  0  0  0  0  0  0  0  0  0  0  0
  -11.5287  -11.7366   16.6815 C   0  0  0  0  0  0  0  0  0  0  0  0
  -10.5298  -12.8602   18.1306 C   0  0  0  0  0  0  0  0  0  0  0  0
  -10.4798  -14.8340   18.9840 C   0  0  0  0  0  0  0  0  0  0  0  0
  -12.2068  -15.6961   19.6310 C   0  0  0  0  0  0  0  0  0  0  0  0
  -10.2534  -16.1737   20.2564 N   0  0  0  0  0  0  0  0  0  0  0  0
  -11.3468  -16.3907   22.1106 C   0  0  0  0  0  0  0  0  0  0  0  0
  -12.2925  -15.8110   22.5391 O   0  0  0  0  0  0  0  0  0  0  0  0
  -10.3468  -17.8516   23.4785 C   0  0  0  0  0  0  0  0  0  0  0  0
  -10.4899  -19.9436   23.3442 N   0  0  0  0  0  0  0  0  0  0  0  0
  -10.9242  -20.8868   22.2129 C   0  0  0  0  0  0  0  0  0  0  0  0
  -11.5545  -22.0182   22.6086 C   0  0  0  0  0  0  0  0  0  0  0  0
  -11.8496  -21.7711   23.9016 C   0  0  0  0  0  0  0  0  0  0  0  0
  -11.3629  -20.6132   24.3215 N   0  0  0  0  0  0  0  0  0  0  0  0
  -12.8312  -10.5448   15.8400 N   0  0  0  0  0  0  0  0  0  0  0  0
  -12.6725   -9.5008   14.6197 C   0  0  0  0  0  0  0  0  0  0  0  0
  -11.6769   -9.1653   14.0046 O   0  0  0  0  0  0  0  0  0  0  0  0
  -13.9669   -8.7518   14.0212 C   0  0  0  0  0  0  0  0  0  0  0  0
  -13.6290   -7.2783   13.6557 C   0  0  0  0  0  0  0  0  0  0  0  0
  -12.7129   -6.4901   14.1981 N   0  0  0  0  0  0  0  0  0  0  0  0
  -12.8277   -5.2689   13.5873 C   0  0  0  0  0  0  0  0  0  0  0  0
  -13.8780   -5.2839   12.7055 C   0  0  0  0  0  0  0  0  0  0  0  0
  -14.3351   -6.5736   12.7061 N   0  0  0  0  0  0  0  0  0  0  0  0
  -12.0428  -11.4762   18.4122 H   0  0  0  0  0  0  0  0  0  0  0  0
  -13.0677  -10.3991   18.0323 H   0  0  0  0  0  0  0  0  0  0  0  0
  -13.6766  -11.7978   17.4761 H   0  0  0  0  0  0  0  0  0  0  0  0
  -11.4136  -12.4918   15.9230 H   0  0  0  0  0  0  0  0  0  0  0  0
  -10.1887  -11.9780   18.6230 H   0  0  0  0  0  0  0  0  0  0  0  0
   -9.4634  -12.7102   17.8750 H   0  0  0  0  0  0  0  0  0  0  0  0
   -9.3909  -14.7578   19.2692 H   0  0  0  0  0  0  0  0  0  0  0  0
  -12.9850  -15.5684   18.9203 H   0  0  0  0  0  0  0  0  0  0  0  0
  -12.6323  -16.5632   20.0923 H   0  0  0  0  0  0  0  0  0  0  0  0
  -12.5012  -15.2106   20.5246 H   0  0  0  0  0  0  0  0  0  0  0  0
   -9.4688  -16.7253   20.2095 H   0  0  0  0  0  0  0  0  0  0  0  0
   -9.4581  -18.5238   23.2616 H   0  0  0  0  0  0  0  0  0  0  0  0
  -10.4855  -17.5645   24.5184 H   0  0  0  0  0  0  0  0  0  0  0  0
  -10.9267  -20.6483   21.1710 H   0  0  0  0  0  0  0  0  0  0  0  0
  -11.9180  -22.7554   21.9202 H   0  0  0  0  0  0  0  0  0  0  0  0
  -12.4310  -22.3700   24.5875 H   0  0  0  0  0  0  0  0  0  0  0  0
  -13.7664  -10.5267   16.1685 H   0  0  0  0  0  0  0  0  0  0  0  0
  -14.8679   -8.8662   14.6274 H   0  0  0  0  0  0  0  0  0  0  0  0
  -14.2051   -9.1548   13.0338 H   0  0  0  0  0  0  0  0  0  0  0  0
  -12.1774   -4.4432   13.8473 H   0  0  0  0  0  0  0  0  0  0  0  0
  -14.3312   -4.5179   12.0933 H   0  0  0  0  0  0  0  0  0  0  0  0
  -15.1114   -6.9326   12.1664 H   0  0  0  0  0  0  0  0  0  0  0  0
  1  2  1  0
  2  3  1  0
  3  4  1  0
  4  5  1  0
  4  6  1  0
  6  7  1  0
  7  8  2  0
  7  9  1  0
  9 10  1  0
 10 11  1  0
 11 12  2  0
 12 13  1  0
 13 14  2  0
  2 15  1  0
 15 16  1  0
 16 17  2  0
 16 18  1  0
 18 19  1  0
 19 20  2  0
 20 21  1  0
 21 22  2  0
 22 23  1  0
 14 10  1  0
 23 19  1  0
  1 24  1  0
  1 25  1  0
  1 26  1  0
  2 27  1  0
  3 28  1  0
  3 29  1  0
  4 30  1  0
  5 31  1  0
  5 32  1  0
  5 33  1  0
  6 34  1  0
  9 35  1  0
  9 36  1  0
 11 37  1  0
 12 38  1  0
 13 39  1  0
 15 40  1  0
 18 41  1  0
 18 42  1  0
 21 43  1  0
 22 44  1  0
 23 45  1  0
M  END
>  <Energy>  (715) 
1344.0181459369701

>  <compound_id>  (715) 
18004

>  <target_id>  (715) 
1

>  <reference_id>  (715) 
99

>  <inspiration_ids>  (715) 
[99, 64]

>  <energy_score>  (715) 
1295.8196665808475

>  <distance_score>  (715) 
10.051983144061909

>  <path>  (715) 
/opt/xchem-fragalysis-2/maxwin/BulkDock/SCRATCH/511025/C18004-P99/C18004-P99.minimised.mol

>  <scratch_subdir>  (715) 
/opt/xchem-fragalysis-2/maxwin/BulkDock/SCRATCH/511025/C18004-P99

>  <fragmenstein_runtime>  (715) 
35.81389021873474

>  <fragmenstein_outcome>  (715) 
too moved

>  <fragmenstein_mode>  (715) 
expansion

>  <fragmenstein_error>  (715) 


$$$$
C18004-P64
     RDKit          3D

 45 46  0  0  0  0  0  0  0  0999 V2000
   -9.9303  -12.2920   18.2895 C   0  0  0  0  0  0  0  0  0  0  0  0
   -8.6856  -12.9611   18.9750 C   0  0  0  0  0  0  0  0  0  0  0  0
   -9.5275  -13.3011   20.7019 C   0  0  0  0  0  0  0  0  0  0  0  0
  -11.1506  -14.0507   21.8730 C   0  0  0  0  0  0  0  0  0  0  0  0
  -12.1917  -15.4273   20.8300 C   0  0  0  0  0  0  0  0  0  0  0  0
  -11.6527  -15.7316   22.8071 N   0  0  0  0  0  0  0  0  0  0  0  0
  -12.5792  -16.0042   24.0169 C   0  0  0  0  0  0  0  0  0  0  0  0
  -13.1581  -15.2389   24.7465 O   0  0  0  0  0  0  0  0  0  0  0  0
  -13.0125  -17.5687   24.3844 C   0  0  0  0  0  0  0  0  0  0  0  0
  -13.4647  -19.3975   24.3520 N   0  0  0  0  0  0  0  0  0  0  0  0
  -12.4920  -20.6391   24.2282 C   0  0  0  0  0  0  0  0  0  0  0  0
  -13.2887  -21.7664   24.0345 C   0  0  0  0  0  0  0  0  0  0  0  0
  -14.6132  -21.3336   24.3360 C   0  0  0  0  0  0  0  0  0  0  0  0
  -14.7134  -20.0197   24.6475 N   0  0  0  0  0  0  0  0  0  0  0  0
   -7.6505  -12.1736   18.0975 N   0  0  0  0  0  0  0  0  0  0  0  0
   -6.2556  -11.8699   18.3076 C   0  0  0  0  0  0  0  0  0  0  0  0
   -5.5111  -12.2150   19.1640 O   0  0  0  0  0  0  0  0  0  0  0  0
   -5.7691  -10.5862   16.9612 C   0  0  0  0  0  0  0  0  0  0  0  0
   -4.7544   -9.3341   16.8277 C   0  0  0  0  0  0  0  0  0  0  0  0
   -3.4373   -9.2991   16.8946 N   0  0  0  0  0  0  0  0  0  0  0  0
   -3.0438   -8.0944   16.3491 C   0  0  0  0  0  0  0  0  0  0  0  0
   -4.1278   -7.3718   15.9206 C   0  0  0  0  0  0  0  0  0  0  0  0
   -5.2044   -8.1534   16.2318 N   0  0  0  0  0  0  0  0  0  0  0  0
  -10.1466  -11.2850   18.6200 H   0  0  0  0  0  0  0  0  0  0  0  0
  -10.7624  -12.8428   18.4600 H   0  0  0  0  0  0  0  0  0  0  0  0
  -10.2035  -12.1913   17.2751 H   0  0  0  0  0  0  0  0  0  0  0  0
   -8.3301  -13.9473   18.7846 H   0  0  0  0  0  0  0  0  0  0  0  0
   -8.7384  -14.0399   20.5814 H   0  0  0  0  0  0  0  0  0  0  0  0
  -10.1127  -13.6622   19.8082 H   0  0  0  0  0  0  0  0  0  0  0  0
  -11.3195  -13.5230   22.7549 H   0  0  0  0  0  0  0  0  0  0  0  0
  -12.8721  -16.1554   21.3204 H   0  0  0  0  0  0  0  0  0  0  0  0
  -12.9873  -14.9137   20.5042 H   0  0  0  0  0  0  0  0  0  0  0  0
  -11.8897  -15.7244   19.8245 H   0  0  0  0  0  0  0  0  0  0  0  0
  -11.2925  -16.5500   22.4985 H   0  0  0  0  0  0  0  0  0  0  0  0
  -12.0084  -17.6447   24.7977 H   0  0  0  0  0  0  0  0  0  0  0  0
  -13.9290  -17.4284   24.9405 H   0  0  0  0  0  0  0  0  0  0  0  0
  -11.4413  -20.4826   24.0999 H   0  0  0  0  0  0  0  0  0  0  0  0
  -12.9405  -22.7647   23.8327 H   0  0  0  0  0  0  0  0  0  0  0  0
  -15.5052  -21.9389   24.4227 H   0  0  0  0  0  0  0  0  0  0  0  0
   -7.9358  -11.7897   17.2361 H   0  0  0  0  0  0  0  0  0  0  0  0
   -5.6236  -10.7858   15.9660 H   0  0  0  0  0  0  0  0  0  0  0  0
   -6.6987  -10.0143   16.9295 H   0  0  0  0  0  0  0  0  0  0  0  0
   -1.9963   -7.8272   16.2933 H   0  0  0  0  0  0  0  0  0  0  0  0
   -4.2239   -6.4089   15.4412 H   0  0  0  0  0  0  0  0  0  0  0  0
   -6.1667   -7.9486   16.0089 H   0  0  0  0  0  0  0  0  0  0  0  0
  1  2  1  0
  2  3  1  0
  3  4  1  0
  4  5  1  0
  4  6  1  0
  6  7  1  0
  7  8  2  0
  7  9  1  0
  9 10  1  0
 10 11  1  0
 11 12  2  0
 12 13  1  0
 13 14  2  0
  2 15  1  0
 15 16  1  0
 16 17  2  0
 16 18  1  0
 18 19  1  0
 19 20  2  0
 20 21  1  0
 21 22  2  0
 22 23  1  0
 14 10  1  0
 23 19  1  0
  1 24  1  0
  1 25  1  0
  1 26  1  0
  2 27  1  0
  3 28  1  0
  3 29  1  0
  4 30  1  0
  5 31  1  0
  5 32  1  0
  5 33  1  0
  6 34  1  0
  9 35  1  0
  9 36  1  0
 11 37  1  0
 12 38  1  0
 13 39  1  0
 15 40  1  0
 18 41  1  0
 18 42  1  0
 21 43  1  0
 22 44  1  0
 23 45  1  0
M  END
>  <Energy>  (716) 
798.90374726527398

>  <compound_id>  (716) 
18004

>  <target_id>  (716) 
1

>  <reference_id>  (716) 
64

>  <inspiration_ids>  (716) 
[99, 64]

>  <energy_score>  (716) 
750.7052679091402

>  <distance_score>  (716) 
10.625954791868363

>  <path>  (716) 
/opt/xchem-fragalysis-2/maxwin/BulkDock/SCRATCH/511025/C18004-P64/C18004-P64.minimised.mol

>  <scratch_subdir>  (716) 
/opt/xchem-fragalysis-2/maxwin/BulkDock/SCRATCH/511025/C18004-P64

>  <fragmenstein_runtime>  (716) 
29.411469221115112

>  <fragmenstein_outcome>  (716) 
too moved

>  <fragmenstein_mode>  (716) 
expansion

>  <fragmenstein_error>  (716) 


$$$$
C18005-P99
     RDKit          3D

 42 43  0  0  0  0  0  0  0  0999 V2000
   -6.2923  -12.0017   20.6551 C   0  0  0  0  0  0  0  0  0  0  0  0
   -6.7684  -12.6050   19.1499 C   0  0  0  0  0  0  0  0  0  0  0  0
   -7.2281  -11.6879   18.0163 C   0  0  0  0  0  0  0  0  0  0  0  0
   -8.2680  -12.3643   16.9746 C   0  0  0  0  0  0  0  0  0  0  0  0
   -9.6243  -12.1707   15.5140 C   0  0  0  0  0  0  0  0  0  0  0  0
   -9.2596  -11.6537   13.5589 C   0  0  0  0  0  0  0  0  0  0  0  0
   -8.6751  -10.2158   12.3784 N   0  0  0  0  0  0  0  0  0  0  0  0
   -8.4472  -10.1470   10.5361 C   0  0  0  0  0  0  0  0  0  0  0  0
   -8.5894  -11.1403    9.8791 O   0  0  0  0  0  0  0  0  0  0  0  0
   -8.1176   -8.6663    9.3810 C   0  0  0  0  0  0  0  0  0  0  0  0
   -7.2638   -7.5152    8.8653 N   0  0  0  0  0  0  0  0  0  0  0  0
   -7.9031   -6.0865    7.7220 C   0  0  0  0  0  0  0  0  0  0  0  0
   -9.2306   -6.5349    7.5373 C   0  0  0  0  0  0  0  0  0  0  0  0
   -8.9359   -8.2817    8.1305 N   0  0  0  0  0  0  0  0  0  0  0  0
  -10.8831  -13.2176   16.7753 N   0  0  0  0  0  0  0  0  0  0  0  0
  -10.5783  -14.1375   18.5963 C   0  0  0  0  0  0  0  0  0  0  0  0
   -9.5404  -14.0693   19.2799 O   0  0  0  0  0  0  0  0  0  0  0  0
  -11.9601  -15.5724   19.4832 C   0  0  0  0  0  0  0  0  0  0  0  0
  -12.5391  -15.8435   20.8574 C   0  0  0  0  0  0  0  0  0  0  0  0
  -13.6253  -16.6974   20.9174 C   0  0  0  0  0  0  0  0  0  0  0  0
  -13.8155  -16.9756   19.6343 N   0  0  0  0  0  0  0  0  0  0  0  0
  -12.9760  -16.3539   18.8237 N   0  0  0  0  0  0  0  0  0  0  0  0
   -6.0986  -12.5629   21.6302 H   0  0  0  0  0  0  0  0  0  0  0  0
   -6.9254  -11.9948   21.6241 H   0  0  0  0  0  0  0  0  0  0  0  0
   -5.1889  -11.7394   20.5671 H   0  0  0  0  0  0  0  0  0  0  0  0
   -7.5257  -13.3437   19.3343 H   0  0  0  0  0  0  0  0  0  0  0  0
   -5.8263  -12.9127   18.7299 H   0  0  0  0  0  0  0  0  0  0  0  0
   -7.6272  -10.9199   18.6686 H   0  0  0  0  0  0  0  0  0  0  0  0
   -6.3988  -11.2220   17.4773 H   0  0  0  0  0  0  0  0  0  0  0  0
   -7.7357  -13.3047   16.8256 H   0  0  0  0  0  0  0  0  0  0  0  0
   -8.9746  -12.5148   17.8053 H   0  0  0  0  0  0  0  0  0  0  0  0
  -10.6592  -11.7024   15.3523 H   0  0  0  0  0  0  0  0  0  0  0  0
   -8.6915  -12.4985   13.1528 H   0  0  0  0  0  0  0  0  0  0  0  0
  -10.2729  -11.7606   13.1460 H   0  0  0  0  0  0  0  0  0  0  0  0
   -8.5994   -9.2800   12.7479 H   0  0  0  0  0  0  0  0  0  0  0  0
   -7.3372   -5.1688    7.5471 H   0  0  0  0  0  0  0  0  0  0  0  0
   -9.9061   -6.4523    6.6759 H   0  0  0  0  0  0  0  0  0  0  0  0
   -9.5730   -8.9926    7.7942 H   0  0  0  0  0  0  0  0  0  0  0  0
  -11.7649  -13.4848   16.3765 H   0  0  0  0  0  0  0  0  0  0  0  0
  -11.9220  -15.7130   21.7373 H   0  0  0  0  0  0  0  0  0  0  0  0
  -14.1690  -17.1500   21.7332 H   0  0  0  0  0  0  0  0  0  0  0  0
  -14.5168  -17.5776   19.2146 H   0  0  0  0  0  0  0  0  0  0  0  0
  1  2  1  0
  2  3  1  0
  3  4  1  0
  4  5  1  0
  5  6  1  0
  6  7  1  0
  7  8  1  0
  8  9  2  0
  8 10  1  0
 10 11  2  0
 11 12  1  0
 12 13  2  0
 13 14  1  0
  5 15  1  0
 15 16  1  0
 16 17  2  0
 16 18  1  0
 18 19  1  0
 19 20  2  0
 20 21  1  0
 21 22  1  0
 14 10  1  0
 22 18  2  0
  1 23  1  0
  1 24  1  0
  1 25  1  0
  2 26  1  0
  2 27  1  0
  3 28  1  0
  3 29  1  0
  4 30  1  0
  4 31  1  0
  5 32  1  0
  6 33  1  0
  6 34  1  0
  7 35  1  0
 12 36  1  0
 13 37  1  0
 14 38  1  0
 15 39  1  0
 19 40  1  0
 20 41  1  0
 21 42  1  0
M  END
>  <Energy>  (717) 
1285.0627412100021

>  <compound_id>  (717) 
18005

>  <target_id>  (717) 
1

>  <reference_id>  (717) 
99

>  <inspiration_ids>  (717) 
[99, 64]

>  <energy_score>  (717) 
1204.2770131270051

>  <distance_score>  (717) 
11.208332416963906

>  <path>  (717) 
/opt/xchem-fragalysis-2/maxwin/BulkDock/SCRATCH/511025/C18005-P99/C18005-P99.minimised.mol

>  <scratch_subdir>  (717) 
/opt/xchem-fragalysis-2/maxwin/BulkDock/SCRATCH/511025/C18005-P99

>  <fragmenstein_runtime>  (717) 
58.105427265167236

>  <fragmenstein_outcome>  (717) 
too moved

>  <fragmenstein_mode>  (717) 
expansion

>  <fragmenstein_error>  (717) 


$$$$
C18005-P64
     RDKit          3D

 42 43  0  0  0  0  0  0  0  0999 V2000
   -6.3336  -12.1894   22.3713 C   0  0  0  0  0  0  0  0  0  0  0  0
   -5.4288  -11.7076   20.6880 C   0  0  0  0  0  0  0  0  0  0  0  0
   -6.6742  -12.3973   19.3107 C   0  0  0  0  0  0  0  0  0  0  0  0
   -7.9603  -13.4091   19.1356 C   0  0  0  0  0  0  0  0  0  0  0  0
   -7.7869  -14.2818   17.5891 C   0  0  0  0  0  0  0  0  0  0  0  0
   -8.2278  -12.6051   16.8322 C   0  0  0  0  0  0  0  0  0  0  0  0
   -8.8138  -12.1430   15.1383 N   0  0  0  0  0  0  0  0  0  0  0  0
   -9.2300  -12.9566   14.0184 C   0  0  0  0  0  0  0  0  0  0  0  0
   -9.3814  -14.1414   13.9258 O   0  0  0  0  0  0  0  0  0  0  0  0
   -9.3591  -12.0390   12.8557 C   0  0  0  0  0  0  0  0  0  0  0  0
   -8.8570  -10.8018   12.8527 N   0  0  0  0  0  0  0  0  0  0  0  0
   -8.8467  -10.3961   11.5410 C   0  0  0  0  0  0  0  0  0  0  0  0
   -9.4245  -11.3445   10.7387 C   0  0  0  0  0  0  0  0  0  0  0  0
   -9.7566  -12.3725   11.5840 N   0  0  0  0  0  0  0  0  0  0  0  0
   -7.8643  -16.2309   17.4830 N   0  0  0  0  0  0  0  0  0  0  0  0
   -7.0396  -17.5035   18.4715 C   0  0  0  0  0  0  0  0  0  0  0  0
   -6.3391  -17.3142   19.4601 O   0  0  0  0  0  0  0  0  0  0  0  0
   -7.0689  -19.1636   18.1065 C   0  0  0  0  0  0  0  0  0  0  0  0
   -6.4865  -20.1053   19.0430 C   0  0  0  0  0  0  0  0  0  0  0  0
   -6.9456  -21.3439   18.6758 C   0  0  0  0  0  0  0  0  0  0  0  0
   -7.7077  -21.1370   17.5693 N   0  0  0  0  0  0  0  0  0  0  0  0
   -7.7936  -19.8449   17.1815 N   0  0  0  0  0  0  0  0  0  0  0  0
   -5.9906  -13.0735   22.8928 H   0  0  0  0  0  0  0  0  0  0  0  0
   -7.3920  -12.0245   22.3708 H   0  0  0  0  0  0  0  0  0  0  0  0
   -6.2250  -11.5407   23.2291 H   0  0  0  0  0  0  0  0  0  0  0  0
   -4.4809  -12.2155   20.3620 H   0  0  0  0  0  0  0  0  0  0  0  0
   -4.7437  -10.8634   20.7406 H   0  0  0  0  0  0  0  0  0  0  0  0
   -6.0067  -12.4528   18.4453 H   0  0  0  0  0  0  0  0  0  0  0  0
   -7.3198  -11.5466   19.0195 H   0  0  0  0  0  0  0  0  0  0  0  0
   -8.8749  -12.8258   19.0698 H   0  0  0  0  0  0  0  0  0  0  0  0
   -8.3297  -14.0330   19.9226 H   0  0  0  0  0  0  0  0  0  0  0  0
   -6.9293  -14.2831   16.8293 H   0  0  0  0  0  0  0  0  0  0  0  0
   -7.6067  -11.7947   17.2144 H   0  0  0  0  0  0  0  0  0  0  0  0
   -9.1014  -12.3764   17.4748 H   0  0  0  0  0  0  0  0  0  0  0  0
   -8.7146  -11.1771   14.8271 H   0  0  0  0  0  0  0  0  0  0  0  0
   -8.4183   -9.4533   11.2393 H   0  0  0  0  0  0  0  0  0  0  0  0
   -9.6012  -11.3939    9.6744 H   0  0  0  0  0  0  0  0  0  0  0  0
  -10.1287  -13.2767   11.3275 H   0  0  0  0  0  0  0  0  0  0  0  0
   -8.3014  -16.6585   16.6855 H   0  0  0  0  0  0  0  0  0  0  0  0
   -5.8985  -19.8582   19.9175 H   0  0  0  0  0  0  0  0  0  0  0  0
   -6.8141  -22.3260   19.1068 H   0  0  0  0  0  0  0  0  0  0  0  0
   -8.2118  -21.8301   17.0268 H   0  0  0  0  0  0  0  0  0  0  0  0
  1  2  1  0
  2  3  1  0
  3  4  1  0
  4  5  1  0
  5  6  1  0
  6  7  1  0
  7  8  1  0
  8  9  2  0
  8 10  1  0
 10 11  2  0
 11 12  1  0
 12 13  2  0
 13 14  1  0
  5 15  1  0
 15 16  1  0
 16 17  2  0
 16 18  1  0
 18 19  1  0
 19 20  2  0
 20 21  1  0
 21 22  1  0
 14 10  1  0
 22 18  2  0
  1 23  1  0
  1 24  1  0
  1 25  1  0
  2 26  1  0
  2 27  1  0
  3 28  1  0
  3 29  1  0
  4 30  1  0
  4 31  1  0
  5 32  1  0
  6 33  1  0
  6 34  1  0
  7 35  1  0
 12 36  1  0
 13 37  1  0
 14 38  1  0
 15 39  1  0
 19 40  1  0
 20 41  1  0
 21 42  1  0
M  END
>  <Energy>  (718) 
514.77270095026188

>  <compound_id>  (718) 
18005

>  <target_id>  (718) 
1

>  <reference_id>  (718) 
64

>  <inspiration_ids>  (718) 
[99, 64]

>  <energy_score>  (718) 
433.98697286726565

>  <distance_score>  (718) 
12.75177774025436

>  <path>  (718) 
/opt/xchem-fragalysis-2/maxwin/BulkDock/SCRATCH/511025/C18005-P64/C18005-P64.minimised.mol

>  <scratch_subdir>  (718) 
/opt/xchem-fragalysis-2/maxwin/BulkDock/SCRATCH/511025/C18005-P64

>  <fragmenstein_runtime>  (718) 
40.7050039768219

>  <fragmenstein_outcome>  (718) 
too moved

>  <fragmenstein_mode>  (718) 
expansion

>  <fragmenstein_error>  (718) 


$$$$
C18006-P99
     RDKit          3D

 45 46  0  0  0  0  0  0  0  0999 V2000
  -11.2654  -11.2820   23.2278 C   0  0  0  0  0  0  0  0  0  0  0  0
   -9.9159  -11.5887   22.7350 C   0  0  0  0  0  0  0  0  0  0  0  0
   -9.9392  -13.0007   21.3845 C   0  0  0  0  0  0  0  0  0  0  0  0
   -9.2630  -13.4275   19.5915 C   0  0  0  0  0  0  0  0  0  0  0  0
   -8.1452  -14.0362   18.6931 C   0  0  0  0  0  0  0  0  0  0  0  0
   -8.0712  -12.6580   17.1876 C   0  0  0  0  0  0  0  0  0  0  0  0
   -8.7958  -12.2805   15.3759 N   0  0  0  0  0  0  0  0  0  0  0  0
   -8.5292  -11.0382   14.3588 C   0  0  0  0  0  0  0  0  0  0  0  0
   -7.8880  -10.0082   14.5176 O   0  0  0  0  0  0  0  0  0  0  0  0
   -9.0155  -11.1504   12.9701 C   0  0  0  0  0  0  0  0  0  0  0  0
   -9.2731  -12.2540   12.2894 N   0  0  0  0  0  0  0  0  0  0  0  0
   -9.2850  -11.8917   10.9563 C   0  0  0  0  0  0  0  0  0  0  0  0
   -8.9536  -10.5722   10.7977 C   0  0  0  0  0  0  0  0  0  0  0  0
   -8.7718  -10.1244   12.0694 N   0  0  0  0  0  0  0  0  0  0  0  0
   -8.2923  -15.8928   17.8698 N   0  0  0  0  0  0  0  0  0  0  0  0
   -7.3457  -17.3992   18.1208 C   0  0  0  0  0  0  0  0  0  0  0  0
   -6.4306  -17.6518   18.9415 O   0  0  0  0  0  0  0  0  0  0  0  0
   -7.5332  -18.6073   17.1385 C   0  0  0  0  0  0  0  0  0  0  0  0
   -6.8335  -19.8564   17.3559 C   0  0  0  0  0  0  0  0  0  0  0  0
   -7.5155  -20.8029   16.6353 C   0  0  0  0  0  0  0  0  0  0  0  0
   -8.4973  -20.1204   15.9899 N   0  0  0  0  0  0  0  0  0  0  0  0
   -9.5014  -20.6754   15.1142 C   0  0  0  0  0  0  0  0  0  0  0  0
   -8.4799  -18.7887   16.2103 N   0  0  0  0  0  0  0  0  0  0  0  0
  -11.1106  -10.3203   23.7009 H   0  0  0  0  0  0  0  0  0  0  0  0
  -11.9989  -11.1015   22.4619 H   0  0  0  0  0  0  0  0  0  0  0  0
  -11.6324  -12.0152   23.9601 H   0  0  0  0  0  0  0  0  0  0  0  0
   -9.0482  -10.9311   22.8258 H   0  0  0  0  0  0  0  0  0  0  0  0
   -9.8674  -11.8335   23.7919 H   0  0  0  0  0  0  0  0  0  0  0  0
  -10.6283  -13.7407   21.9072 H   0  0  0  0  0  0  0  0  0  0  0  0
  -11.0345  -13.0239   21.2246 H   0  0  0  0  0  0  0  0  0  0  0  0
  -10.1166  -13.8931   19.1711 H   0  0  0  0  0  0  0  0  0  0  0  0
   -9.2497  -12.4648   19.0440 H   0  0  0  0  0  0  0  0  0  0  0  0
   -7.3355  -13.6075   19.3234 H   0  0  0  0  0  0  0  0  0  0  0  0
   -7.4029  -13.4378   16.7950 H   0  0  0  0  0  0  0  0  0  0  0  0
   -7.4376  -11.8511   17.5845 H   0  0  0  0  0  0  0  0  0  0  0  0
   -9.3106  -13.0214   14.8827 H   0  0  0  0  0  0  0  0  0  0  0  0
   -9.5040  -12.6192   10.1851 H   0  0  0  0  0  0  0  0  0  0  0  0
   -8.8147   -9.9435    9.9307 H   0  0  0  0  0  0  0  0  0  0  0  0
   -8.3612   -9.2478   12.3486 H   0  0  0  0  0  0  0  0  0  0  0  0
   -8.9799  -16.0468   17.2111 H   0  0  0  0  0  0  0  0  0  0  0  0
   -6.0317  -20.0307   18.0613 H   0  0  0  0  0  0  0  0  0  0  0  0
   -7.3970  -21.8742   16.5517 H   0  0  0  0  0  0  0  0  0  0  0  0
   -9.3797  -20.2283   14.1244 H   0  0  0  0  0  0  0  0  0  0  0  0
  -10.4855  -20.4371   15.5257 H   0  0  0  0  0  0  0  0  0  0  0  0
   -9.3742  -21.7590   15.0538 H   0  0  0  0  0  0  0  0  0  0  0  0
  1  2  1  0
  2  3  1  0
  3  4  1  0
  4  5  1  0
  5  6  1  0
  6  7  1  0
  7  8  1  0
  8  9  2  0
  8 10  1  0
 10 11  2  0
 11 12  1  0
 12 13  2  0
 13 14  1  0
  5 15  1  0
 15 16  1  0
 16 17  2  0
 16 18  1  0
 18 19  1  0
 19 20  2  0
 20 21  1  0
 21 22  1  0
 21 23  1  0
 14 10  1  0
 23 18  2  0
  1 24  1  0
  1 25  1  0
  1 26  1  0
  2 27  1  0
  2 28  1  0
  3 29  1  0
  3 30  1  0
  4 31  1  0
  4 32  1  0
  5 33  1  0
  6 34  1  0
  6 35  1  0
  7 36  1  0
 12 37  1  0
 13 38  1  0
 14 39  1  0
 15 40  1  0
 19 41  1  0
 20 42  1  0
 22 43  1  0
 22 44  1  0
 22 45  1  0
M  END
>  <Energy>  (719) 
620.47748071148771

>  <compound_id>  (719) 
18006

>  <target_id>  (719) 
1

>  <reference_id>  (719) 
99

>  <inspiration_ids>  (719) 
[99, 64]

>  <energy_score>  (719) 
536.7566960739659

>  <distance_score>  (719) 
12.800791458470012

>  <path>  (719) 
/opt/xchem-fragalysis-2/maxwin/BulkDock/SCRATCH/511025/C18006-P99/C18006-P99.minimised.mol

>  <scratch_subdir>  (719) 
/opt/xchem-fragalysis-2/maxwin/BulkDock/SCRATCH/511025/C18006-P99

>  <fragmenstein_runtime>  (719) 
57.76159358024597

>  <fragmenstein_outcome>  (719) 
too moved

>  <fragmenstein_mode>  (719) 
expansion

>  <fragmenstein_error>  (719) 


$$$$
C18006-P64
     RDKit          3D

 45 46  0  0  0  0  0  0  0  0999 V2000
   -2.5681  -18.2223   16.0342 C   0  0  0  0  0  0  0  0  0  0  0  0
   -3.0216  -17.8528   14.6302 C   0  0  0  0  0  0  0  0  0  0  0  0
   -3.1507  -16.3454   14.4082 C   0  0  0  0  0  0  0  0  0  0  0  0
   -4.2059  -15.6143   15.2512 C   0  0  0  0  0  0  0  0  0  0  0  0
   -5.6843  -16.0173   15.0275 C   0  0  0  0  0  0  0  0  0  0  0  0
   -6.1181  -15.9172   13.5268 C   0  0  0  0  0  0  0  0  0  0  0  0
   -5.8996  -14.5918   12.9059 N   0  0  0  0  0  0  0  0  0  0  0  0
   -6.8318  -13.6399   12.3576 C   0  0  0  0  0  0  0  0  0  0  0  0
   -8.0288  -13.6438   12.3353 O   0  0  0  0  0  0  0  0  0  0  0  0
   -6.1480  -12.4296   11.8206 C   0  0  0  0  0  0  0  0  0  0  0  0
   -4.8400  -12.2188   11.7534 N   0  0  0  0  0  0  0  0  0  0  0  0
   -4.6822  -10.9566   11.2103 C   0  0  0  0  0  0  0  0  0  0  0  0
   -5.8998  -10.3756   10.9552 C   0  0  0  0  0  0  0  0  0  0  0  0
   -6.8190  -11.3144   11.3417 N   0  0  0  0  0  0  0  0  0  0  0  0
   -5.9525  -17.2745   15.7575 N   0  0  0  0  0  0  0  0  0  0  0  0
   -6.8688  -18.3425   15.4879 C   0  0  0  0  0  0  0  0  0  0  0  0
   -7.5977  -18.5294   14.5580 O   0  0  0  0  0  0  0  0  0  0  0  0
   -6.8846  -19.3253   16.6424 C   0  0  0  0  0  0  0  0  0  0  0  0
   -7.6510  -20.5290   16.7457 C   0  0  0  0  0  0  0  0  0  0  0  0
   -7.3910  -21.0510   17.9923 C   0  0  0  0  0  0  0  0  0  0  0  0
   -6.5296  -20.1761   18.5815 N   0  0  0  0  0  0  0  0  0  0  0  0
   -6.0336  -20.2349   19.9361 C   0  0  0  0  0  0  0  0  0  0  0  0
   -6.1748  -19.1368   17.7824 N   0  0  0  0  0  0  0  0  0  0  0  0
   -1.6125  -17.7451   16.2740 H   0  0  0  0  0  0  0  0  0  0  0  0
   -3.2979  -17.9247   16.7913 H   0  0  0  0  0  0  0  0  0  0  0  0
   -2.4325  -19.3058   16.1114 H   0  0  0  0  0  0  0  0  0  0  0  0
   -2.2796  -18.2392   13.9204 H   0  0  0  0  0  0  0  0  0  0  0  0
   -3.9602  -18.3622   14.3924 H   0  0  0  0  0  0  0  0  0  0  0  0
   -2.1769  -15.8818   14.6134 H   0  0  0  0  0  0  0  0  0  0  0  0
   -3.3423  -16.1641   13.3444 H   0  0  0  0  0  0  0  0  0  0  0  0
   -3.9552  -15.7125   16.3149 H   0  0  0  0  0  0  0  0  0  0  0  0
   -4.1019  -14.5453   15.0299 H   0  0  0  0  0  0  0  0  0  0  0  0
   -6.2887  -15.2811   15.5714 H   0  0  0  0  0  0  0  0  0  0  0  0
   -7.1883  -16.1336   13.4425 H   0  0  0  0  0  0  0  0  0  0  0  0
   -5.5855  -16.6539   12.9176 H   0  0  0  0  0  0  0  0  0  0  0  0
   -4.9549  -14.2206   12.8153 H   0  0  0  0  0  0  0  0  0  0  0  0
   -3.6972  -10.5411   11.0391 H   0  0  0  0  0  0  0  0  0  0  0  0
   -6.1889   -9.4183   10.5451 H   0  0  0  0  0  0  0  0  0  0  0  0
   -7.8276  -11.2395   11.3074 H   0  0  0  0  0  0  0  0  0  0  0  0
   -5.5586  -17.4033   16.6902 H   0  0  0  0  0  0  0  0  0  0  0  0
   -8.3191  -20.9330   15.9975 H   0  0  0  0  0  0  0  0  0  0  0  0
   -7.7669  -21.9269   18.5043 H   0  0  0  0  0  0  0  0  0  0  0  0
   -4.9489  -20.3606   19.8970 H   0  0  0  0  0  0  0  0  0  0  0  0
   -6.2946  -19.3013   20.4410 H   0  0  0  0  0  0  0  0  0  0  0  0
   -6.4916  -21.0801   20.4556 H   0  0  0  0  0  0  0  0  0  0  0  0
  1  2  1  0
  2  3  1  0
  3  4  1  0
  4  5  1  0
  5  6  1  0
  6  7  1  0
  7  8  1  0
  8  9  2  0
  8 10  1  0
 10 11  2  0
 11 12  1  0
 12 13  2  0
 13 14  1  0
  5 15  1  0
 15 16  1  0
 16 17  2  0
 16 18  1  0
 18 19  1  0
 19 20  2  0
 20 21  1  0
 21 22  1  0
 21 23  1  0
 14 10  1  0
 23 18  2  0
  1 24  1  0
  1 25  1  0
  1 26  1  0
  2 27  1  0
  2 28  1  0
  3 29  1  0
  3 30  1  0
  4 31  1  0
  4 32  1  0
  5 33  1  0
  6 34  1  0
  6 35  1  0
  7 36  1  0
 12 37  1  0
 13 38  1  0
 14 39  1  0
 15 40  1  0
 19 41  1  0
 20 42  1  0
 22 43  1  0
 22 44  1  0
 22 45  1  0
M  END
>  <Energy>  (720) 
42.037718504308266

>  <compound_id>  (720) 
18006

>  <target_id>  (720) 
1

>  <reference_id>  (720) 
64

>  <inspiration_ids>  (720) 
[99, 64]

>  <energy_score>  (720) 
-41.683066133211014

>  <distance_score>  (720) 
12.923267327393857

>  <path>  (720) 
/opt/xchem-fragalysis-2/maxwin/BulkDock/SCRATCH/511025/C18006-P64/C18006-P64.minimised.mol

>  <scratch_subdir>  (720) 
/opt/xchem-fragalysis-2/maxwin/BulkDock/SCRATCH/511025/C18006-P64

>  <fragmenstein_runtime>  (720) 
62.741265058517456

>  <fragmenstein_outcome>  (720) 
too moved

>  <fragmenstein_mode>  (720) 
expansion

>  <fragmenstein_error>  (720) 


$$$$
C18007-P99
     RDKit          3D

 42 43  0  0  0  0  0  0  0  0999 V2000
   -9.4371  -18.8334   23.3653 C   0  0  0  0  0  0  0  0  0  0  0  0
   -8.1095  -18.0386   22.0214 C   0  0  0  0  0  0  0  0  0  0  0  0
   -6.9393  -17.8312   21.2565 N   0  0  0  0  0  0  0  0  0  0  0  0
   -6.4118  -18.5774   20.0935 C   0  0  0  0  0  0  0  0  0  0  0  0
   -6.8955  -19.4747   19.4562 O   0  0  0  0  0  0  0  0  0  0  0  0
   -5.0382  -18.2454   19.7373 C   0  0  0  0  0  0  0  0  0  0  0  0
   -4.0565  -18.2038   20.8014 C   0  0  0  0  0  0  0  0  0  0  0  0
   -2.8631  -18.5187   20.2133 C   0  0  0  0  0  0  0  0  0  0  0  0
   -3.1545  -18.7459   18.9035 N   0  0  0  0  0  0  0  0  0  0  0  0
   -4.4361  -18.5456   18.5787 N   0  0  0  0  0  0  0  0  0  0  0  0
   -7.9645  -16.1947   20.6586 C   0  0  0  0  0  0  0  0  0  0  0  0
   -8.9669  -15.9158   19.2571 C   0  0  0  0  0  0  0  0  0  0  0  0
   -8.2342  -14.1739   20.0072 C   0  0  0  0  0  0  0  0  0  0  0  0
   -8.1247  -13.3183   18.7356 N   0  0  0  0  0  0  0  0  0  0  0  0
   -9.0999  -12.5773   18.0227 C   0  0  0  0  0  0  0  0  0  0  0  0
  -10.2367  -12.3553   18.2672 O   0  0  0  0  0  0  0  0  0  0  0  0
   -8.2501  -12.1971   16.6698 C   0  0  0  0  0  0  0  0  0  0  0  0
   -8.9030  -11.9061   14.8869 C   0  0  0  0  0  0  0  0  0  0  0  0
   -9.0503  -12.8462   13.9388 N   0  0  0  0  0  0  0  0  0  0  0  0
   -8.9400  -12.2270   12.6906 C   0  0  0  0  0  0  0  0  0  0  0  0
   -8.7769  -10.8806   12.8185 C   0  0  0  0  0  0  0  0  0  0  0  0
   -8.8338  -10.6680   14.1651 N   0  0  0  0  0  0  0  0  0  0  0  0
  -10.3627  -18.5102   23.0694 H   0  0  0  0  0  0  0  0  0  0  0  0
   -9.8045  -19.8892   23.4007 H   0  0  0  0  0  0  0  0  0  0  0  0
  -10.0144  -17.9584   23.9814 H   0  0  0  0  0  0  0  0  0  0  0  0
   -7.6351  -19.0262   22.2489 H   0  0  0  0  0  0  0  0  0  0  0  0
   -7.5699  -17.3813   22.6690 H   0  0  0  0  0  0  0  0  0  0  0  0
   -4.2584  -18.0874   21.8585 H   0  0  0  0  0  0  0  0  0  0  0  0
   -1.8678  -18.6621   20.6072 H   0  0  0  0  0  0  0  0  0  0  0  0
   -2.5241  -19.0474   18.1681 H   0  0  0  0  0  0  0  0  0  0  0  0
   -6.9081  -16.3292   20.4041 H   0  0  0  0  0  0  0  0  0  0  0  0
   -9.9477  -16.2475   19.5613 H   0  0  0  0  0  0  0  0  0  0  0  0
   -9.5707  -15.0558   19.1020 H   0  0  0  0  0  0  0  0  0  0  0  0
   -8.5061  -16.1506   18.2777 H   0  0  0  0  0  0  0  0  0  0  0  0
   -7.2443  -13.7368   20.0491 H   0  0  0  0  0  0  0  0  0  0  0  0
   -9.0150  -13.5980   20.4974 H   0  0  0  0  0  0  0  0  0  0  0  0
   -7.2549  -13.2214   18.2806 H   0  0  0  0  0  0  0  0  0  0  0  0
   -7.4748  -11.4858   17.0722 H   0  0  0  0  0  0  0  0  0  0  0  0
   -7.7813  -13.1849   16.5395 H   0  0  0  0  0  0  0  0  0  0  0  0
   -9.0439  -12.7925   11.7761 H   0  0  0  0  0  0  0  0  0  0  0  0
   -8.6763  -10.0808   12.0994 H   0  0  0  0  0  0  0  0  0  0  0  0
   -8.7219   -9.7523   14.5521 H   0  0  0  0  0  0  0  0  0  0  0  0
  1  2  1  0
  2  3  1  0
  3  4  1  0
  4  5  2  0
  4  6  1  0
  6  7  1  0
  7  8  2  0
  8  9  1  0
  9 10  1  0
  3 11  1  0
 11 12  1  0
 11 13  1  0
 13 14  1  0
 14 15  1  0
 15 16  2  0
 15 17  1  0
 17 18  1  0
 18 19  2  0
 19 20  1  0
 20 21  2  0
 21 22  1  0
 10  6  2  0
 22 18  1  0
  1 23  1  0
  1 24  1  0
  1 25  1  0
  2 26  1  0
  2 27  1  0
  7 28  1  0
  8 29  1  0
  9 30  1  0
 11 31  1  0
 12 32  1  0
 12 33  1  0
 12 34  1  0
 13 35  1  0
 13 36  1  0
 14 37  1  0
 17 38  1  0
 17 39  1  0
 20 40  1  0
 21 41  1  0
 22 42  1  0
M  END
>  <Energy>  (721) 
812.49306066345343

>  <compound_id>  (721) 
18007

>  <target_id>  (721) 
1

>  <reference_id>  (721) 
99

>  <inspiration_ids>  (721) 
[99, 64]

>  <energy_score>  (721) 
715.6277501405684

>  <distance_score>  (721) 
13.232777642087424

>  <path>  (721) 
/opt/xchem-fragalysis-2/maxwin/BulkDock/SCRATCH/511025/C18007-P99/C18007-P99.minimised.mol

>  <scratch_subdir>  (721) 
/opt/xchem-fragalysis-2/maxwin/BulkDock/SCRATCH/511025/C18007-P99

>  <fragmenstein_runtime>  (721) 
47.62930870056152

>  <fragmenstein_outcome>  (721) 
too moved

>  <fragmenstein_mode>  (721) 
expansion

>  <fragmenstein_error>  (721) 


$$$$
C18007-P64
     RDKit          3D

 42 43  0  0  0  0  0  0  0  0999 V2000
   -3.3047  -17.7058   21.0594 C   0  0  0  0  0  0  0  0  0  0  0  0
   -4.7568  -17.1018   21.2549 C   0  0  0  0  0  0  0  0  0  0  0  0
   -5.4487  -17.7077   20.1278 N   0  0  0  0  0  0  0  0  0  0  0  0
   -6.1701  -19.0657   20.0548 C   0  0  0  0  0  0  0  0  0  0  0  0
   -6.4070  -19.8636   20.9161 O   0  0  0  0  0  0  0  0  0  0  0  0
   -6.5691  -19.6177   18.7366 C   0  0  0  0  0  0  0  0  0  0  0  0
   -5.5314  -20.0774   17.8558 C   0  0  0  0  0  0  0  0  0  0  0  0
   -6.0068  -21.2066   17.2304 C   0  0  0  0  0  0  0  0  0  0  0  0
   -7.2318  -21.4306   17.7635 N   0  0  0  0  0  0  0  0  0  0  0  0
   -7.5937  -20.5098   18.6457 N   0  0  0  0  0  0  0  0  0  0  0  0
   -6.7803  -16.2273   20.4660 C   0  0  0  0  0  0  0  0  0  0  0  0
   -7.4457  -17.3147   21.5674 C   0  0  0  0  0  0  0  0  0  0  0  0
   -7.2107  -13.9595   20.1234 C   0  0  0  0  0  0  0  0  0  0  0  0
   -6.1273  -12.6900   19.0985 N   0  0  0  0  0  0  0  0  0  0  0  0
   -4.5504  -11.9824   19.4415 C   0  0  0  0  0  0  0  0  0  0  0  0
   -3.8536  -12.0736   20.4254 O   0  0  0  0  0  0  0  0  0  0  0  0
   -3.7819  -11.1738   18.3077 C   0  0  0  0  0  0  0  0  0  0  0  0
   -2.4278  -11.1434   17.6280 C   0  0  0  0  0  0  0  0  0  0  0  0
   -1.6329  -12.0914   17.1848 N   0  0  0  0  0  0  0  0  0  0  0  0
   -0.7265  -11.4721   16.3422 C   0  0  0  0  0  0  0  0  0  0  0  0
   -0.9678  -10.1245   16.2510 C   0  0  0  0  0  0  0  0  0  0  0  0
   -2.0180   -9.9157   17.0930 N   0  0  0  0  0  0  0  0  0  0  0  0
   -2.8414  -17.3166   20.1455 H   0  0  0  0  0  0  0  0  0  0  0  0
   -2.6667  -17.4393   21.9100 H   0  0  0  0  0  0  0  0  0  0  0  0
   -3.3312  -18.7998   20.9912 H   0  0  0  0  0  0  0  0  0  0  0  0
   -4.4019  -16.1531   21.5058 H   0  0  0  0  0  0  0  0  0  0  0  0
   -4.9711  -17.6739   22.1693 H   0  0  0  0  0  0  0  0  0  0  0  0
   -4.5203  -19.6968   17.8036 H   0  0  0  0  0  0  0  0  0  0  0  0
   -5.5557  -21.8922   16.5286 H   0  0  0  0  0  0  0  0  0  0  0  0
   -7.8634  -22.2082   17.6015 H   0  0  0  0  0  0  0  0  0  0  0  0
   -7.2190  -16.6625   19.5528 H   0  0  0  0  0  0  0  0  0  0  0  0
   -6.7627  -17.8553   22.2360 H   0  0  0  0  0  0  0  0  0  0  0  0
   -7.9589  -18.1893   21.2835 H   0  0  0  0  0  0  0  0  0  0  0  0
   -7.9600  -16.7474   22.2288 H   0  0  0  0  0  0  0  0  0  0  0  0
   -7.9009  -13.8279   19.1528 H   0  0  0  0  0  0  0  0  0  0  0  0
   -8.3566  -13.8043   20.2034 H   0  0  0  0  0  0  0  0  0  0  0  0
   -6.4777  -12.3506   18.2129 H   0  0  0  0  0  0  0  0  0  0  0  0
   -3.4404  -10.3572   18.9868 H   0  0  0  0  0  0  0  0  0  0  0  0
   -4.4919  -10.8782   17.5343 H   0  0  0  0  0  0  0  0  0  0  0  0
    0.0431  -12.0459   15.8417 H   0  0  0  0  0  0  0  0  0  0  0  0
   -0.4902   -9.3298   15.6969 H   0  0  0  0  0  0  0  0  0  0  0  0
   -2.4812   -9.0327   17.2561 H   0  0  0  0  0  0  0  0  0  0  0  0
  1  2  1  0
  2  3  1  0
  3  4  1  0
  4  5  2  0
  4  6  1  0
  6  7  1  0
  7  8  2  0
  8  9  1  0
  9 10  1  0
  3 11  1  0
 11 12  1  0
 11 13  1  0
 13 14  1  0
 14 15  1  0
 15 16  2  0
 15 17  1  0
 17 18  1  0
 18 19  2  0
 19 20  1  0
 20 21  2  0
 21 22  1  0
 10  6  2  0
 22 18  1  0
  1 23  1  0
  1 24  1  0
  1 25  1  0
  2 26  1  0
  2 27  1  0
  7 28  1  0
  8 29  1  0
  9 30  1  0
 11 31  1  0
 12 32  1  0
 12 33  1  0
 12 34  1  0
 13 35  1  0
 13 36  1  0
 14 37  1  0
 17 38  1  0
 17 39  1  0
 20 40  1  0
 21 41  1  0
 22 42  1  0
M  END
>  <Energy>  (722) 
741.00870213337566

>  <compound_id>  (722) 
18007

>  <target_id>  (722) 
1

>  <reference_id>  (722) 
64

>  <inspiration_ids>  (722) 
[99, 64]

>  <energy_score>  (722) 
644.1433916104953

>  <distance_score>  (722) 
13.447489499351768

>  <path>  (722) 
/opt/xchem-fragalysis-2/maxwin/BulkDock/SCRATCH/511025/C18007-P64/C18007-P64.minimised.mol

>  <scratch_subdir>  (722) 
/opt/xchem-fragalysis-2/maxwin/BulkDock/SCRATCH/511025/C18007-P64

>  <fragmenstein_runtime>  (722) 
56.758322954177856

>  <fragmenstein_outcome>  (722) 
too moved

>  <fragmenstein_mode>  (722) 
expansion

>  <fragmenstein_error>  (722) 


$$$$
C18008-P99
     RDKit          3D

 45 46  0  0  0  0  0  0  0  0999 V2000
  -11.9029  -19.6246   10.1395 C   0  0  0  0  0  0  0  0  0  0  0  0
  -10.7390  -18.7547   10.6507 C   0  0  0  0  0  0  0  0  0  0  0  0
  -10.5342  -19.1197   12.0909 N   0  0  0  0  0  0  0  0  0  0  0  0
  -11.3745  -18.8989   13.2500 C   0  0  0  0  0  0  0  0  0  0  0  0
  -12.4054  -18.2861   13.3602 O   0  0  0  0  0  0  0  0  0  0  0  0
  -10.9117  -19.6666   14.5036 C   0  0  0  0  0  0  0  0  0  0  0  0
   -9.8837  -20.6498   14.6518 C   0  0  0  0  0  0  0  0  0  0  0  0
  -10.0004  -21.1684   15.9231 C   0  0  0  0  0  0  0  0  0  0  0  0
  -11.0914  -20.5638   16.4599 N   0  0  0  0  0  0  0  0  0  0  0  0
  -11.7519  -20.9370   17.6868 C   0  0  0  0  0  0  0  0  0  0  0  0
  -11.6235  -19.6181   15.6620 N   0  0  0  0  0  0  0  0  0  0  0  0
   -9.3975  -17.9437   11.9773 C   0  0  0  0  0  0  0  0  0  0  0  0
   -8.2993  -18.2614   13.0043 C   0  0  0  0  0  0  0  0  0  0  0  0
   -9.8413  -16.4133   12.1236 C   0  0  0  0  0  0  0  0  0  0  0  0
   -8.7750  -15.4233   11.8490 N   0  0  0  0  0  0  0  0  0  0  0  0
   -8.8348  -14.0937   11.2334 C   0  0  0  0  0  0  0  0  0  0  0  0
   -9.7509  -13.5082   10.7259 O   0  0  0  0  0  0  0  0  0  0  0  0
   -7.4256  -13.4402   11.2958 C   0  0  0  0  0  0  0  0  0  0  0  0
   -7.2654  -12.0409   10.7222 C   0  0  0  0  0  0  0  0  0  0  0  0
   -6.1065  -11.4211   10.5362 N   0  0  0  0  0  0  0  0  0  0  0  0
   -6.3997  -10.1852   10.0139 C   0  0  0  0  0  0  0  0  0  0  0  0
   -7.7548  -10.0449    9.8761 C   0  0  0  0  0  0  0  0  0  0  0  0
   -8.2967  -11.2121   10.3422 N   0  0  0  0  0  0  0  0  0  0  0  0
  -11.6805  -20.6895   10.2675 H   0  0  0  0  0  0  0  0  0  0  0  0
  -12.8280  -19.4057   10.6832 H   0  0  0  0  0  0  0  0  0  0  0  0
  -12.0787  -19.4352    9.0758 H   0  0  0  0  0  0  0  0  0  0  0  0
  -11.0938  -17.7394   10.4659 H   0  0  0  0  0  0  0  0  0  0  0  0
   -9.8989  -19.0615   10.0113 H   0  0  0  0  0  0  0  0  0  0  0  0
   -9.1813  -20.9738   13.8983 H   0  0  0  0  0  0  0  0  0  0  0  0
   -9.4556  -21.9447   16.4428 H   0  0  0  0  0  0  0  0  0  0  0  0
  -12.3050  -20.0814   18.0745 H   0  0  0  0  0  0  0  0  0  0  0  0
  -11.0000  -21.2610   18.4104 H   0  0  0  0  0  0  0  0  0  0  0  0
  -12.4397  -21.7567   17.4643 H   0  0  0  0  0  0  0  0  0  0  0  0
   -8.8018  -18.0183   11.0507 H   0  0  0  0  0  0  0  0  0  0  0  0
   -7.9231  -19.2787   12.8552 H   0  0  0  0  0  0  0  0  0  0  0  0
   -7.4436  -17.5893   12.8900 H   0  0  0  0  0  0  0  0  0  0  0  0
   -8.6591  -18.1751   14.0272 H   0  0  0  0  0  0  0  0  0  0  0  0
  -10.6696  -16.1462   11.4641 H   0  0  0  0  0  0  0  0  0  0  0  0
  -10.1959  -16.2132   13.1316 H   0  0  0  0  0  0  0  0  0  0  0  0
   -7.8540  -15.5616   12.2517 H   0  0  0  0  0  0  0  0  0  0  0  0
   -6.7310  -14.1020   10.7644 H   0  0  0  0  0  0  0  0  0  0  0  0
   -7.1250  -13.4033   12.3475 H   0  0  0  0  0  0  0  0  0  0  0  0
   -5.6216   -9.4776    9.7601 H   0  0  0  0  0  0  0  0  0  0  0  0
   -8.3746   -9.2533    9.4936 H   0  0  0  0  0  0  0  0  0  0  0  0
   -9.2795  -11.4636   10.3734 H   0  0  0  0  0  0  0  0  0  0  0  0
  1  2  1  0
  2  3  1  0
  3  4  1  0
  4  5  2  0
  4  6  1  0
  6  7  1  0
  7  8  2  0
  8  9  1  0
  9 10  1  0
  9 11  1  0
  3 12  1  0
 12 13  1  0
 12 14  1  0
 14 15  1  0
 15 16  1  0
 16 17  2  0
 16 18  1  0
 18 19  1  0
 19 20  2  0
 20 21  1  0
 21 22  2  0
 22 23  1  0
 11  6  2  0
 23 19  1  0
  1 24  1  0
  1 25  1  0
  1 26  1  0
  2 27  1  0
  2 28  1  0
  7 29  1  0
  8 30  1  0
 10 31  1  0
 10 32  1  0
 10 33  1  0
 12 34  1  0
 13 35  1  0
 13 36  1  0
 13 37  1  0
 14 38  1  0
 14 39  1  0
 15 40  1  0
 18 41  1  0
 18 42  1  0
 21 43  1  0
 22 44  1  0
 23 45  1  0
M  END
>  <Energy>  (723) 
147.73867430956187

>  <compound_id>  (723) 
18008

>  <target_id>  (723) 
1

>  <reference_id>  (723) 
99

>  <inspiration_ids>  (723) 
[99, 64]

>  <energy_score>  (723) 
50.5596256169016

>  <distance_score>  (723) 
13.233571557297049

>  <path>  (723) 
/opt/xchem-fragalysis-2/maxwin/BulkDock/SCRATCH/511025/C18008-P99/C18008-P99.minimised.mol

>  <scratch_subdir>  (723) 
/opt/xchem-fragalysis-2/maxwin/BulkDock/SCRATCH/511025/C18008-P99

>  <fragmenstein_runtime>  (723) 
41.259382247924805

>  <fragmenstein_outcome>  (723) 
too moved

>  <fragmenstein_mode>  (723) 
expansion

>  <fragmenstein_error>  (723) 


$$$$
C18008-P64
     RDKit          3D

 45 46  0  0  0  0  0  0  0  0999 V2000
   -6.7274  -20.5105   20.7063 C   0  0  0  0  0  0  0  0  0  0  0  0
   -7.0543  -19.2059   19.8945 C   0  0  0  0  0  0  0  0  0  0  0  0
   -5.8841  -18.7035   19.2923 N   0  0  0  0  0  0  0  0  0  0  0  0
   -5.0003  -19.3023   18.3556 C   0  0  0  0  0  0  0  0  0  0  0  0
   -5.0774  -20.3488   17.7685 O   0  0  0  0  0  0  0  0  0  0  0  0
   -3.7091  -18.6471   18.1003 C   0  0  0  0  0  0  0  0  0  0  0  0
   -2.7168  -19.4654   17.4441 C   0  0  0  0  0  0  0  0  0  0  0  0
   -1.5782  -19.3332   18.1917 C   0  0  0  0  0  0  0  0  0  0  0  0
   -1.8386  -18.3348   19.0721 N   0  0  0  0  0  0  0  0  0  0  0  0
   -0.8227  -17.6832   19.8606 C   0  0  0  0  0  0  0  0  0  0  0  0
   -3.0919  -17.8224   18.9800 N   0  0  0  0  0  0  0  0  0  0  0  0
   -7.1568  -17.5849   18.4189 C   0  0  0  0  0  0  0  0  0  0  0  0
   -8.3619  -16.1034   18.8632 C   0  0  0  0  0  0  0  0  0  0  0  0
   -7.8594  -17.0305   16.7963 C   0  0  0  0  0  0  0  0  0  0  0  0
   -7.4584  -15.8668   15.4700 N   0  0  0  0  0  0  0  0  0  0  0  0
   -7.8740  -15.8792   13.8844 C   0  0  0  0  0  0  0  0  0  0  0  0
   -8.4767  -16.7201   13.2373 O   0  0  0  0  0  0  0  0  0  0  0  0
   -7.3889  -14.6673   12.9662 C   0  0  0  0  0  0  0  0  0  0  0  0
   -8.1845  -13.7970   11.9902 C   0  0  0  0  0  0  0  0  0  0  0  0
   -8.0604  -13.8061   10.6689 N   0  0  0  0  0  0  0  0  0  0  0  0
   -8.4303  -12.5595   10.2128 C   0  0  0  0  0  0  0  0  0  0  0  0
   -8.7818  -11.7499   11.2601 C   0  0  0  0  0  0  0  0  0  0  0  0
   -8.6686  -12.5479   12.3687 N   0  0  0  0  0  0  0  0  0  0  0  0
   -5.7656  -20.9575   20.4406 H   0  0  0  0  0  0  0  0  0  0  0  0
   -6.7721  -20.3128   21.7814 H   0  0  0  0  0  0  0  0  0  0  0  0
   -7.5025  -21.2696   20.5356 H   0  0  0  0  0  0  0  0  0  0  0  0
   -7.3416  -18.5778   20.7326 H   0  0  0  0  0  0  0  0  0  0  0  0
   -7.5707  -19.7855   19.1409 H   0  0  0  0  0  0  0  0  0  0  0  0
   -2.8960  -20.2414   16.7106 H   0  0  0  0  0  0  0  0  0  0  0  0
   -0.6202  -19.8300   18.1324 H   0  0  0  0  0  0  0  0  0  0  0  0
   -1.1208  -16.6522   20.0299 H   0  0  0  0  0  0  0  0  0  0  0  0
    0.1200  -17.6928   19.3062 H   0  0  0  0  0  0  0  0  0  0  0  0
   -0.7072  -18.2333   20.7948 H   0  0  0  0  0  0  0  0  0  0  0  0
   -6.6278  -17.0406   19.1982 H   0  0  0  0  0  0  0  0  0  0  0  0
   -8.1147  -15.2725   18.2176 H   0  0  0  0  0  0  0  0  0  0  0  0
   -9.4022  -15.9018   18.6226 H   0  0  0  0  0  0  0  0  0  0  0  0
   -8.4726  -15.9561   19.9507 H   0  0  0  0  0  0  0  0  0  0  0  0
   -8.3531  -17.9246   16.3713 H   0  0  0  0  0  0  0  0  0  0  0  0
   -8.7115  -16.5101   17.0575 H   0  0  0  0  0  0  0  0  0  0  0  0
   -7.0369  -14.9831   15.7020 H   0  0  0  0  0  0  0  0  0  0  0  0
   -6.5423  -15.0697   12.3905 H   0  0  0  0  0  0  0  0  0  0  0  0
   -7.0324  -13.8729   13.5633 H   0  0  0  0  0  0  0  0  0  0  0  0
   -8.4075  -12.3203    9.1578 H   0  0  0  0  0  0  0  0  0  0  0  0
   -9.1050  -10.7197   11.3165 H   0  0  0  0  0  0  0  0  0  0  0  0
   -8.7890  -12.2382   13.3218 H   0  0  0  0  0  0  0  0  0  0  0  0
  1  2  1  0
  2  3  1  0
  3  4  1  0
  4  5  2  0
  4  6  1  0
  6  7  1  0
  7  8  2  0
  8  9  1  0
  9 10  1  0
  9 11  1  0
  3 12  1  0
 12 13  1  0
 12 14  1  0
 14 15  1  0
 15 16  1  0
 16 17  2  0
 16 18  1  0
 18 19  1  0
 19 20  2  0
 20 21  1  0
 21 22  2  0
 22 23  1  0
 11  6  2  0
 23 19  1  0
  1 24  1  0
  1 25  1  0
  1 26  1  0
  2 27  1  0
  2 28  1  0
  7 29  1  0
  8 30  1  0
 10 31  1  0
 10 32  1  0
 10 33  1  0
 12 34  1  0
 13 35  1  0
 13 36  1  0
 13 37  1  0
 14 38  1  0
 14 39  1  0
 15 40  1  0
 18 41  1  0
 18 42  1  0
 21 43  1  0
 22 44  1  0
 23 45  1  0
M  END
>  <Energy>  (724) 
525.89785395958472

>  <compound_id>  (724) 
18008

>  <target_id>  (724) 
1

>  <reference_id>  (724) 
64

>  <inspiration_ids>  (724) 
[99, 64]

>  <energy_score>  (724) 
428.71880526691257

>  <distance_score>  (724) 
13.946304925378627

>  <path>  (724) 
/opt/xchem-fragalysis-2/maxwin/BulkDock/SCRATCH/511025/C18008-P64/C18008-P64.minimised.mol

>  <scratch_subdir>  (724) 
/opt/xchem-fragalysis-2/maxwin/BulkDock/SCRATCH/511025/C18008-P64

>  <fragmenstein_runtime>  (724) 
25.53434181213379

>  <fragmenstein_outcome>  (724) 
too moved

>  <fragmenstein_mode>  (724) 
expansion

>  <fragmenstein_error>  (724) 


$$$$
C18009-P99
     RDKit          3D

 44 45  0  0  0  0  0  0  0  0999 V2000
   -9.3481  -14.8554    8.9466 C   0  0  0  0  0  0  0  0  0  0  0  0
   -8.1461  -14.4717    9.6078 O   0  0  0  0  0  0  0  0  0  0  0  0
   -7.3155  -15.6145    9.8706 C   0  0  0  0  0  0  0  0  0  0  0  0
   -6.0066  -15.1725   10.5789 C   0  0  0  0  0  0  0  0  0  0  0  0
   -5.8163  -15.4041   12.0625 N   0  0  0  0  0  0  0  0  0  0  0  0
   -6.7646  -14.1752   12.1528 C   0  0  0  0  0  0  0  0  0  0  0  0
   -6.2790  -12.7580   11.7183 C   0  0  0  0  0  0  0  0  0  0  0  0
   -5.1172  -12.1678   11.9525 N   0  0  0  0  0  0  0  0  0  0  0  0
   -5.1849  -10.9179   11.3734 C   0  0  0  0  0  0  0  0  0  0  0  0
   -6.4043  -10.7286   10.7746 C   0  0  0  0  0  0  0  0  0  0  0  0
   -7.0861  -11.8993   10.9883 N   0  0  0  0  0  0  0  0  0  0  0  0
   -6.3206  -16.5164   12.9483 C   0  0  0  0  0  0  0  0  0  0  0  0
   -7.0493  -17.4073   12.7054 O   0  0  0  0  0  0  0  0  0  0  0  0
   -5.5624  -16.2175   14.1600 N   0  0  0  0  0  0  0  0  0  0  0  0
   -5.3929  -16.9920   15.4254 C   0  0  0  0  0  0  0  0  0  0  0  0
   -3.9261  -17.4746   15.4062 C   0  0  0  0  0  0  0  0  0  0  0  0
   -6.2977  -18.1422   15.9263 C   0  0  0  0  0  0  0  0  0  0  0  0
   -7.4898  -18.7296   15.4346 C   0  0  0  0  0  0  0  0  0  0  0  0
   -7.7897  -19.7823   16.2743 C   0  0  0  0  0  0  0  0  0  0  0  0
   -6.8033  -19.7973   17.2065 N   0  0  0  0  0  0  0  0  0  0  0  0
   -6.6201  -20.7542   18.2708 C   0  0  0  0  0  0  0  0  0  0  0  0
   -5.9364  -18.7793   17.0705 N   0  0  0  0  0  0  0  0  0  0  0  0
   -9.1231  -15.3250    7.9843 H   0  0  0  0  0  0  0  0  0  0  0  0
   -9.9415  -13.9550    8.7664 H   0  0  0  0  0  0  0  0  0  0  0  0
   -9.9288  -15.5373    9.5752 H   0  0  0  0  0  0  0  0  0  0  0  0
   -7.8668  -16.3509   10.4638 H   0  0  0  0  0  0  0  0  0  0  0  0
   -7.0564  -16.0667    8.9055 H   0  0  0  0  0  0  0  0  0  0  0  0
   -5.5447  -14.2664   10.1664 H   0  0  0  0  0  0  0  0  0  0  0  0
   -5.2969  -15.9360   10.2181 H   0  0  0  0  0  0  0  0  0  0  0  0
   -7.8084  -14.3979   11.8968 H   0  0  0  0  0  0  0  0  0  0  0  0
   -6.8658  -14.0696   13.2356 H   0  0  0  0  0  0  0  0  0  0  0  0
   -4.3503  -10.2310   11.4249 H   0  0  0  0  0  0  0  0  0  0  0  0
   -6.8346   -9.9015   10.2281 H   0  0  0  0  0  0  0  0  0  0  0  0
   -8.0083  -12.1314   10.6421 H   0  0  0  0  0  0  0  0  0  0  0  0
   -4.9712  -15.4130   13.9912 H   0  0  0  0  0  0  0  0  0  0  0  0
   -5.4572  -16.2105   16.1911 H   0  0  0  0  0  0  0  0  0  0  0  0
   -3.7879  -18.2672   14.6614 H   0  0  0  0  0  0  0  0  0  0  0  0
   -3.2455  -16.6550   15.1474 H   0  0  0  0  0  0  0  0  0  0  0  0
   -3.6066  -17.8641   16.3785 H   0  0  0  0  0  0  0  0  0  0  0  0
   -8.0505  -18.4541   14.5548 H   0  0  0  0  0  0  0  0  0  0  0  0
   -8.5886  -20.5099   16.2603 H   0  0  0  0  0  0  0  0  0  0  0  0
   -7.4915  -21.4117   18.3219 H   0  0  0  0  0  0  0  0  0  0  0  0
   -6.5080  -20.2116   19.2129 H   0  0  0  0  0  0  0  0  0  0  0  0
   -5.7213  -21.3369   18.0547 H   0  0  0  0  0  0  0  0  0  0  0  0
  1  2  1  0
  2  3  1  0
  3  4  1  0
  4  5  1  0
  5  6  1  0
  6  7  1  0
  7  8  2  0
  8  9  1  0
  9 10  2  0
 10 11  1  0
  5 12  1  0
 12 13  2  0
 12 14  1  0
 14 15  1  0
 15 16  1  0
 15 17  1  0
 17 18  1  0
 18 19  2  0
 19 20  1  0
 20 21  1  0
 20 22  1  0
 11  7  1  0
 22 17  2  0
  1 23  1  0
  1 24  1  0
  1 25  1  0
  3 26  1  0
  3 27  1  0
  4 28  1  0
  4 29  1  0
  6 30  1  0
  6 31  1  0
  9 32  1  0
 10 33  1  0
 11 34  1  0
 14 35  1  0
 15 36  1  0
 16 37  1  0
 16 38  1  0
 16 39  1  0
 18 40  1  0
 19 41  1  0
 21 42  1  0
 21 43  1  0
 21 44  1  0
M  END
>  <Energy>  (725) 
61.358027682714344

>  <compound_id>  (725) 
18009

>  <target_id>  (725) 
1

>  <reference_id>  (725) 
99

>  <inspiration_ids>  (725) 
[99, 64]

>  <energy_score>  (725) 
60.339443491675866

>  <distance_score>  (725) 
13.683865974197548

>  <path>  (725) 
/opt/xchem-fragalysis-2/maxwin/BulkDock/SCRATCH/511025/C18009-P99/C18009-P99.minimised.mol

>  <scratch_subdir>  (725) 
/opt/xchem-fragalysis-2/maxwin/BulkDock/SCRATCH/511025/C18009-P99

>  <fragmenstein_runtime>  (725) 
37.42980766296387

>  <fragmenstein_outcome>  (725) 
too moved

>  <fragmenstein_mode>  (725) 
expansion

>  <fragmenstein_error>  (725) 


$$$$
C18009-P64
     RDKit          3D

 44 45  0  0  0  0  0  0  0  0999 V2000
   -5.7801   -8.0691   14.7213 C   0  0  0  0  0  0  0  0  0  0  0  0
   -6.3493   -9.3151   15.1141 O   0  0  0  0  0  0  0  0  0  0  0  0
   -6.3902   -9.4719   16.5431 C   0  0  0  0  0  0  0  0  0  0  0  0
   -6.9774  -11.0523   17.1230 C   0  0  0  0  0  0  0  0  0  0  0  0
   -7.7356  -12.2451   17.9709 N   0  0  0  0  0  0  0  0  0  0  0  0
   -6.1953  -12.1506   18.3624 C   0  0  0  0  0  0  0  0  0  0  0  0
   -4.5964  -11.5407   17.6187 C   0  0  0  0  0  0  0  0  0  0  0  0
   -3.5152  -11.3331   18.3811 N   0  0  0  0  0  0  0  0  0  0  0  0
   -2.5178  -10.8000   17.5966 C   0  0  0  0  0  0  0  0  0  0  0  0
   -2.9352  -10.7003   16.3039 C   0  0  0  0  0  0  0  0  0  0  0  0
   -4.1990  -11.2337   16.3080 N   0  0  0  0  0  0  0  0  0  0  0  0
   -9.1355  -12.1992   18.9592 C   0  0  0  0  0  0  0  0  0  0  0  0
   -9.5856  -11.1727   19.1333 O   0  0  0  0  0  0  0  0  0  0  0  0
   -9.7713  -13.6178   19.8058 N   0  0  0  0  0  0  0  0  0  0  0  0
  -11.2452  -13.8382   21.3272 C   0  0  0  0  0  0  0  0  0  0  0  0
  -12.2781  -15.4161   20.6248 C   0  0  0  0  0  0  0  0  0  0  0  0
  -11.6573  -15.3423   22.8038 C   0  0  0  0  0  0  0  0  0  0  0  0
  -12.4808  -15.5760   24.3693 C   0  0  0  0  0  0  0  0  0  0  0  0
  -13.3426  -16.6267   24.4783 C   0  0  0  0  0  0  0  0  0  0  0  0
  -13.2062  -17.1390   23.2819 N   0  0  0  0  0  0  0  0  0  0  0  0
  -13.9746  -18.2419   22.7412 C   0  0  0  0  0  0  0  0  0  0  0  0
  -12.3071  -16.5351   22.5341 N   0  0  0  0  0  0  0  0  0  0  0  0
   -6.3421   -7.2328   15.1472 H   0  0  0  0  0  0  0  0  0  0  0  0
   -4.7323   -8.0144   15.0311 H   0  0  0  0  0  0  0  0  0  0  0  0
   -5.8244   -8.0017   13.6311 H   0  0  0  0  0  0  0  0  0  0  0  0
   -6.9773   -8.6505   16.9545 H   0  0  0  0  0  0  0  0  0  0  0  0
   -5.3743   -9.2603   16.8575 H   0  0  0  0  0  0  0  0  0  0  0  0
   -7.6664  -11.3657   16.3554 H   0  0  0  0  0  0  0  0  0  0  0  0
   -7.4562  -10.4612   17.8616 H   0  0  0  0  0  0  0  0  0  0  0  0
   -6.0772  -12.5441   19.3333 H   0  0  0  0  0  0  0  0  0  0  0  0
   -5.8987  -12.9605   17.7213 H   0  0  0  0  0  0  0  0  0  0  0  0
   -1.5610  -10.5234   18.0198 H   0  0  0  0  0  0  0  0  0  0  0  0
   -2.4661  -10.3351   15.4018 H   0  0  0  0  0  0  0  0  0  0  0  0
   -4.7520  -11.1971   15.4740 H   0  0  0  0  0  0  0  0  0  0  0  0
   -9.1931  -14.4147   19.5880 H   0  0  0  0  0  0  0  0  0  0  0  0
  -11.0931  -12.9578   21.8942 H   0  0  0  0  0  0  0  0  0  0  0  0
  -11.9884  -15.7738   19.6554 H   0  0  0  0  0  0  0  0  0  0  0  0
  -13.1087  -16.0563   20.9627 H   0  0  0  0  0  0  0  0  0  0  0  0
  -13.0164  -14.8110   20.3985 H   0  0  0  0  0  0  0  0  0  0  0  0
  -12.4885  -14.9253   25.2454 H   0  0  0  0  0  0  0  0  0  0  0  0
  -14.0621  -16.9258   25.2252 H   0  0  0  0  0  0  0  0  0  0  0  0
  -13.3958  -19.1590   22.8749 H   0  0  0  0  0  0  0  0  0  0  0  0
  -14.9224  -18.3151   23.2815 H   0  0  0  0  0  0  0  0  0  0  0  0
  -14.1722  -18.0593   21.6821 H   0  0  0  0  0  0  0  0  0  0  0  0
  1  2  1  0
  2  3  1  0
  3  4  1  0
  4  5  1  0
  5  6  1  0
  6  7  1  0
  7  8  2  0
  8  9  1  0
  9 10  2  0
 10 11  1  0
  5 12  1  0
 12 13  2  0
 12 14  1  0
 14 15  1  0
 15 16  1  0
 15 17  1  0
 17 18  1  0
 18 19  2  0
 19 20  1  0
 20 21  1  0
 20 22  1  0
 11  7  1  0
 22 17  2  0
  1 23  1  0
  1 24  1  0
  1 25  1  0
  3 26  1  0
  3 27  1  0
  4 28  1  0
  4 29  1  0
  6 30  1  0
  6 31  1  0
  9 32  1  0
 10 33  1  0
 11 34  1  0
 14 35  1  0
 15 36  1  0
 16 37  1  0
 16 38  1  0
 16 39  1  0
 18 40  1  0
 19 41  1  0
 21 42  1  0
 21 43  1  0
 21 44  1  0
M  END
>  <Energy>  (726) 
900.68115487016757

>  <compound_id>  (726) 
18009

>  <target_id>  (726) 
1

>  <reference_id>  (726) 
64

>  <inspiration_ids>  (726) 
[99, 64]

>  <energy_score>  (726) 
899.6625706791381

>  <distance_score>  (726) 
13.436400358143533

>  <path>  (726) 
/opt/xchem-fragalysis-2/maxwin/BulkDock/SCRATCH/511025/C18009-P64/C18009-P64.minimised.mol

>  <scratch_subdir>  (726) 
/opt/xchem-fragalysis-2/maxwin/BulkDock/SCRATCH/511025/C18009-P64

>  <fragmenstein_runtime>  (726) 
30.594200372695923

>  <fragmenstein_outcome>  (726) 
too moved

>  <fragmenstein_mode>  (726) 
expansion

>  <fragmenstein_error>  (726) 


$$$$
C48751-P99
     RDKit          3D

 29 30  0  0  0  0  0  0  0  0999 V2000
   -3.0294  -17.7016   13.0203 C   0  0  0  0  0  0  0  0  0  0  0  0
   -3.9966  -18.8057   12.8603 N   0  0  0  0  0  0  0  0  0  0  0  0
   -4.2170  -18.0972   11.4422 C   0  0  0  0  0  0  0  0  0  0  0  0
   -4.4266  -16.5427   11.1915 C   0  0  0  0  0  0  0  0  0  0  0  0
   -3.6957  -15.7126   10.3462 C   0  0  0  0  0  0  0  0  0  0  0  0
   -4.2455  -14.4598   10.4524 N   0  0  0  0  0  0  0  0  0  0  0  0
   -5.2854  -14.5533   11.3288 C   0  0  0  0  0  0  0  0  0  0  0  0
   -5.4224  -15.7835   11.7851 N   0  0  0  0  0  0  0  0  0  0  0  0
   -3.7812  -20.2388   12.6823 C   0  0  0  0  0  0  0  0  0  0  0  0
   -2.7578  -20.8642   12.5311 O   0  0  0  0  0  0  0  0  0  0  0  0
   -5.0724  -21.0888   12.8131 C   0  0  0  0  0  0  0  0  0  0  0  0
   -5.1797  -22.0138   13.9848 N   0  0  0  0  0  0  0  0  0  0  0  0
   -4.3069  -22.2215   15.0310 C   0  0  0  0  0  0  0  0  0  0  0  0
   -4.9798  -22.9508   15.9894 C   0  0  0  0  0  0  0  0  0  0  0  0
   -6.2404  -23.1945   15.4257 C   0  0  0  0  0  0  0  0  0  0  0  0
   -6.3608  -22.6659   14.2010 N   0  0  0  0  0  0  0  0  0  0  0  0
   -2.4788  -17.9965   13.9272 H   0  0  0  0  0  0  0  0  0  0  0  0
   -3.4846  -16.7549   13.3240 H   0  0  0  0  0  0  0  0  0  0  0  0
   -2.2135  -17.6497   12.2833 H   0  0  0  0  0  0  0  0  0  0  0  0
   -3.4469  -18.4743   10.7476 H   0  0  0  0  0  0  0  0  0  0  0  0
   -5.1494  -18.5590   11.0835 H   0  0  0  0  0  0  0  0  0  0  0  0
   -2.8525  -15.9081    9.6984 H   0  0  0  0  0  0  0  0  0  0  0  0
   -3.9463  -13.6242    9.9682 H   0  0  0  0  0  0  0  0  0  0  0  0
   -5.9053  -13.7076   11.5967 H   0  0  0  0  0  0  0  0  0  0  0  0
   -5.1405  -21.7353   11.9303 H   0  0  0  0  0  0  0  0  0  0  0  0
   -5.9532  -20.4485   12.8289 H   0  0  0  0  0  0  0  0  0  0  0  0
   -3.3120  -21.7983   15.0229 H   0  0  0  0  0  0  0  0  0  0  0  0
   -4.6082  -23.2604   16.9552 H   0  0  0  0  0  0  0  0  0  0  0  0
   -7.0786  -23.7339   15.8487 H   0  0  0  0  0  0  0  0  0  0  0  0
  1  2  1  0
  2  3  1  0
  3  4  1  0
  4  5  2  0
  5  6  1  0
  6  7  1  0
  7  8  2  0
  2  9  1  0
  9 10  2  0
  9 11  1  0
 11 12  1  0
 12 13  1  0
 13 14  2  0
 14 15  1  0
 15 16  2  0
  8  4  1  0
 16 12  1  0
  1 17  1  0
  1 18  1  0
  1 19  1  0
  3 20  1  0
  3 21  1  0
  5 22  1  0
  6 23  1  0
  7 24  1  0
 11 25  1  0
 11 26  1  0
 13 27  1  0
 14 28  1  0
 15 29  1  0
M  END
>  <Energy>  (727) 
108.65445501408293

>  <compound_id>  (727) 
48751

>  <target_id>  (727) 
1

>  <reference_id>  (727) 
99

>  <inspiration_ids>  (727) 
[99, 64]

>  <energy_score>  (727) 
74.43823207052776

>  <distance_score>  (727) 
15.378604504403357

>  <path>  (727) 
/opt/xchem-fragalysis-2/maxwin/BulkDock/SCRATCH/511025/C48751-P99/C48751-P99.minimised.mol

>  <scratch_subdir>  (727) 
/opt/xchem-fragalysis-2/maxwin/BulkDock/SCRATCH/511025/C48751-P99

>  <fragmenstein_runtime>  (727) 
31.03658413887024

>  <fragmenstein_outcome>  (727) 
too moved

>  <fragmenstein_mode>  (727) 
expansion

>  <fragmenstein_error>  (727) 


$$$$
C48751-P64
     RDKit          3D

 29 30  0  0  0  0  0  0  0  0999 V2000
   -8.8018  -16.0137   13.4660 C   0  0  0  0  0  0  0  0  0  0  0  0
   -8.3286  -17.2587   14.3969 N   0  0  0  0  0  0  0  0  0  0  0  0
   -6.7921  -16.8244   13.4860 C   0  0  0  0  0  0  0  0  0  0  0  0
   -6.5858  -15.6124   12.3209 C   0  0  0  0  0  0  0  0  0  0  0  0
   -5.8803  -15.6898   11.1288 C   0  0  0  0  0  0  0  0  0  0  0  0
   -5.8541  -14.4202   10.5961 N   0  0  0  0  0  0  0  0  0  0  0  0
   -6.5268  -13.5992   11.4491 C   0  0  0  0  0  0  0  0  0  0  0  0
   -6.9750  -14.2729   12.4847 N   0  0  0  0  0  0  0  0  0  0  0  0
   -8.1728  -17.4135   16.3161 C   0  0  0  0  0  0  0  0  0  0  0  0
   -8.3511  -16.4579   17.0580 O   0  0  0  0  0  0  0  0  0  0  0  0
   -7.8852  -19.1028   17.4371 C   0  0  0  0  0  0  0  0  0  0  0  0
   -7.6579  -20.9839   17.4443 N   0  0  0  0  0  0  0  0  0  0  0  0
   -8.5062  -22.0501   17.1006 C   0  0  0  0  0  0  0  0  0  0  0  0
   -7.8175  -23.2086   16.8372 C   0  0  0  0  0  0  0  0  0  0  0  0
   -6.4867  -22.8419   16.9835 C   0  0  0  0  0  0  0  0  0  0  0  0
   -6.3275  -21.5817   17.4110 N   0  0  0  0  0  0  0  0  0  0  0  0
   -8.4774  -15.0605   13.8923 H   0  0  0  0  0  0  0  0  0  0  0  0
   -9.9053  -15.9756   13.4220 H   0  0  0  0  0  0  0  0  0  0  0  0
   -8.6741  -16.2687   12.4081 H   0  0  0  0  0  0  0  0  0  0  0  0
   -5.9726  -16.5819   14.1445 H   0  0  0  0  0  0  0  0  0  0  0  0
   -6.5188  -17.7193   12.9199 H   0  0  0  0  0  0  0  0  0  0  0  0
   -5.3785  -16.5143   10.6419 H   0  0  0  0  0  0  0  0  0  0  0  0
   -5.4056  -14.1429    9.7338 H   0  0  0  0  0  0  0  0  0  0  0  0
   -6.6553  -12.5395   11.2732 H   0  0  0  0  0  0  0  0  0  0  0  0
   -7.1657  -18.9380   18.2793 H   0  0  0  0  0  0  0  0  0  0  0  0
   -8.9702  -19.5394   17.4683 H   0  0  0  0  0  0  0  0  0  0  0  0
   -9.4536  -21.8114   16.7321 H   0  0  0  0  0  0  0  0  0  0  0  0
   -8.2248  -24.1373   16.4680 H   0  0  0  0  0  0  0  0  0  0  0  0
   -5.6020  -23.4437   16.8259 H   0  0  0  0  0  0  0  0  0  0  0  0
  1  2  1  0
  2  3  1  0
  3  4  1  0
  4  5  2  0
  5  6  1  0
  6  7  1  0
  7  8  2  0
  2  9  1  0
  9 10  2  0
  9 11  1  0
 11 12  1  0
 12 13  1  0
 13 14  2  0
 14 15  1  0
 15 16  2  0
  8  4  1  0
 16 12  1  0
  1 17  1  0
  1 18  1  0
  1 19  1  0
  3 20  1  0
  3 21  1  0
  5 22  1  0
  6 23  1  0
  7 24  1  0
 11 25  1  0
 11 26  1  0
 13 27  1  0
 14 28  1  0
 15 29  1  0
M  END
>  <Energy>  (728) 
450.71793293655264

>  <compound_id>  (728) 
48751

>  <target_id>  (728) 
1

>  <reference_id>  (728) 
64

>  <inspiration_ids>  (728) 
[99, 64]

>  <energy_score>  (728) 
416.5017099929913

>  <distance_score>  (728) 
14.174389273141935

>  <path>  (728) 
/opt/xchem-fragalysis-2/maxwin/BulkDock/SCRATCH/511025/C48751-P64/C48751-P64.minimised.mol

>  <scratch_subdir>  (728) 
/opt/xchem-fragalysis-2/maxwin/BulkDock/SCRATCH/511025/C48751-P64

>  <fragmenstein_runtime>  (728) 
18.010803937911987

>  <fragmenstein_outcome>  (728) 
too moved

>  <fragmenstein_mode>  (728) 
expansion

>  <fragmenstein_error>  (728) 


$$$$
C18010-P99
     RDKit          3D

 29 30  0  0  0  0  0  0  0  0999 V2000
  -12.8891  -10.5619   18.1244 C   0  0  0  0  0  0  0  0  0  0  0  0
  -11.3364  -10.7209   18.1318 N   0  0  0  0  0  0  0  0  0  0  0  0
  -11.5399   -9.4272   17.0025 C   0  0  0  0  0  0  0  0  0  0  0  0
  -10.7396   -8.1176   17.2199 C   0  0  0  0  0  0  0  0  0  0  0  0
  -10.0321   -7.6848   18.2480 N   0  0  0  0  0  0  0  0  0  0  0  0
   -9.2965   -6.6086   17.7920 C   0  0  0  0  0  0  0  0  0  0  0  0
   -9.5711   -6.3510   16.4747 C   0  0  0  0  0  0  0  0  0  0  0  0
  -10.5457   -7.2542   16.1509 N   0  0  0  0  0  0  0  0  0  0  0  0
  -10.8182  -12.4472   17.9472 C   0  0  0  0  0  0  0  0  0  0  0  0
  -10.6970  -12.6839   16.8277 O   0  0  0  0  0  0  0  0  0  0  0  0
  -10.1666  -14.1464   19.1208 C   0  0  0  0  0  0  0  0  0  0  0  0
  -10.3108  -16.1783   19.5288 N   0  0  0  0  0  0  0  0  0  0  0  0
  -11.3580  -17.9340   19.5282 C   0  0  0  0  0  0  0  0  0  0  0  0
  -11.0208  -19.3744   21.0696 C   0  0  0  0  0  0  0  0  0  0  0  0
   -9.0164  -18.1457   21.3850 C   0  0  0  0  0  0  0  0  0  0  0  0
   -8.8565  -16.5355   20.5033 N   0  0  0  0  0  0  0  0  0  0  0  0
  -13.0841   -9.4992   18.3846 H   0  0  0  0  0  0  0  0  0  0  0  0
  -13.7728  -10.8247   18.6890 H   0  0  0  0  0  0  0  0  0  0  0  0
  -13.2318  -10.8668   17.1208 H   0  0  0  0  0  0  0  0  0  0  0  0
  -12.5540   -9.0237   16.8079 H   0  0  0  0  0  0  0  0  0  0  0  0
  -11.3509   -9.8372   16.0028 H   0  0  0  0  0  0  0  0  0  0  0  0
   -8.6022   -6.0923   18.4422 H   0  0  0  0  0  0  0  0  0  0  0  0
   -9.1904   -5.6170   15.7790 H   0  0  0  0  0  0  0  0  0  0  0  0
  -10.9928   -7.3562   15.2549 H   0  0  0  0  0  0  0  0  0  0  0  0
   -9.0342  -14.3980   19.1656 H   0  0  0  0  0  0  0  0  0  0  0  0
   -9.6379  -13.6172   19.9458 H   0  0  0  0  0  0  0  0  0  0  0  0
  -11.1502  -18.0880   18.4610 H   0  0  0  0  0  0  0  0  0  0  0  0
  -11.0243  -20.5152   20.9188 H   0  0  0  0  0  0  0  0  0  0  0  0
   -8.0332  -18.4870   21.8439 H   0  0  0  0  0  0  0  0  0  0  0  0
  1  2  1  0
  2  3  1  0
  3  4  1  0
  4  5  2  0
  5  6  1  0
  6  7  2  0
  7  8  1  0
  2  9  1  0
  9 10  2  0
  9 11  1  0
 11 12  1  0
 12 13  1  0
 13 14  2  0
 14 15  1  0
 15 16  2  0
  8  4  1  0
 16 12  1  0
  1 17  1  0
  1 18  1  0
  1 19  1  0
  3 20  1  0
  3 21  1  0
  6 22  1  0
  7 23  1  0
  8 24  1  0
 11 25  1  0
 11 26  1  0
 13 27  1  0
 14 28  1  0
 15 29  1  0
M  END
>  <Energy>  (729) 
1502.9144561499886

>  <compound_id>  (729) 
18010

>  <target_id>  (729) 
1

>  <reference_id>  (729) 
99

>  <inspiration_ids>  (729) 
[99, 64]

>  <energy_score>  (729) 
1453.4998363506293

>  <distance_score>  (729) 
12.167111337682229

>  <path>  (729) 
/opt/xchem-fragalysis-2/maxwin/BulkDock/SCRATCH/511025/C18010-P99/C18010-P99.minimised.mol

>  <scratch_subdir>  (729) 
/opt/xchem-fragalysis-2/maxwin/BulkDock/SCRATCH/511025/C18010-P99

>  <fragmenstein_runtime>  (729) 
19.018134355545044

>  <fragmenstein_outcome>  (729) 
too moved

>  <fragmenstein_mode>  (729) 
expansion

>  <fragmenstein_error>  (729) 


$$$$
C18010-P64
     RDKit          3D

 29 30  0  0  0  0  0  0  0  0999 V2000
   -8.1526   -9.4193    9.5093 C   0  0  0  0  0  0  0  0  0  0  0  0
   -6.7657   -8.9088    9.2556 N   0  0  0  0  0  0  0  0  0  0  0  0
   -7.6478   -7.6683    8.3682 C   0  0  0  0  0  0  0  0  0  0  0  0
   -7.7763   -5.7776    7.5844 C   0  0  0  0  0  0  0  0  0  0  0  0
   -7.1725   -5.3695    6.4589 N   0  0  0  0  0  0  0  0  0  0  0  0
   -7.3561   -4.0226    6.2918 C   0  0  0  0  0  0  0  0  0  0  0  0
   -8.1195   -3.5266    7.3019 C   0  0  0  0  0  0  0  0  0  0  0  0
   -8.3927   -4.5998    8.1076 N   0  0  0  0  0  0  0  0  0  0  0  0
   -6.0274   -8.8417   10.5095 C   0  0  0  0  0  0  0  0  0  0  0  0
   -5.9097   -7.9407   11.3024 O   0  0  0  0  0  0  0  0  0  0  0  0
   -5.4047  -10.2495   10.8404 C   0  0  0  0  0  0  0  0  0  0  0  0
   -6.2061  -11.2413   11.6400 N   0  0  0  0  0  0  0  0  0  0  0  0
   -7.4151  -11.1040   12.2836 C   0  0  0  0  0  0  0  0  0  0  0  0
   -7.8608  -12.3748   12.5842 C   0  0  0  0  0  0  0  0  0  0  0  0
   -6.7862  -13.2152   12.2563 C   0  0  0  0  0  0  0  0  0  0  0  0
   -5.7673  -12.5370   11.7171 N   0  0  0  0  0  0  0  0  0  0  0  0
   -8.5362   -9.1031   10.4767 H   0  0  0  0  0  0  0  0  0  0  0  0
   -8.9610   -9.5718    8.7902 H   0  0  0  0  0  0  0  0  0  0  0  0
   -7.9482  -10.4844    9.6973 H   0  0  0  0  0  0  0  0  0  0  0  0
   -8.6787   -8.0173    8.1689 H   0  0  0  0  0  0  0  0  0  0  0  0
   -7.0030   -8.0419    7.5684 H   0  0  0  0  0  0  0  0  0  0  0  0
   -6.9389   -3.5002    5.4429 H   0  0  0  0  0  0  0  0  0  0  0  0
   -8.4991   -2.5398    7.5250 H   0  0  0  0  0  0  0  0  0  0  0  0
   -8.9777   -4.5152    8.9302 H   0  0  0  0  0  0  0  0  0  0  0  0
   -5.1563  -10.7627    9.9040 H   0  0  0  0  0  0  0  0  0  0  0  0
   -4.4819  -10.0971   11.4109 H   0  0  0  0  0  0  0  0  0  0  0  0
   -7.8734  -10.1350   12.4193 H   0  0  0  0  0  0  0  0  0  0  0  0
   -8.7997  -12.6463   13.0407 H   0  0  0  0  0  0  0  0  0  0  0  0
   -6.6961  -14.2860   12.3856 H   0  0  0  0  0  0  0  0  0  0  0  0
  1  2  1  0
  2  3  1  0
  3  4  1  0
  4  5  2  0
  5  6  1  0
  6  7  2  0
  7  8  1  0
  2  9  1  0
  9 10  2  0
  9 11  1  0
 11 12  1  0
 12 13  1  0
 13 14  2  0
 14 15  1  0
 15 16  2  0
  8  4  1  0
 16 12  1  0
  1 17  1  0
  1 18  1  0
  1 19  1  0
  3 20  1  0
  3 21  1  0
  6 22  1  0
  7 23  1  0
  8 24  1  0
 11 25  1  0
 11 26  1  0
 13 27  1  0
 14 28  1  0
 15 29  1  0
M  END
>  <Energy>  (730) 
254.02263556486287

>  <compound_id>  (730) 
18010

>  <target_id>  (730) 
1

>  <reference_id>  (730) 
64

>  <inspiration_ids>  (730) 
[99, 64]

>  <energy_score>  (730) 
204.6080157654825

>  <distance_score>  (730) 
13.890897058836746

>  <path>  (730) 
/opt/xchem-fragalysis-2/maxwin/BulkDock/SCRATCH/511025/C18010-P64/C18010-P64.minimised.mol

>  <scratch_subdir>  (730) 
/opt/xchem-fragalysis-2/maxwin/BulkDock/SCRATCH/511025/C18010-P64

>  <fragmenstein_runtime>  (730) 
31.51476216316223

>  <fragmenstein_outcome>  (730) 
too moved

>  <fragmenstein_mode>  (730) 
expansion

>  <fragmenstein_error>  (730) 


$$$$
C48752-P99
     RDKit          3D

 30 31  0  0  0  0  0  0  0  0999 V2000
   -8.5557  -21.0529   19.3430 C   0  0  0  0  0  0  0  0  0  0  0  0
   -9.4849  -21.2999   18.1746 N   0  0  0  0  0  0  0  0  0  0  0  0
   -9.7311  -22.5948   18.9354 C   0  0  0  0  0  0  0  0  0  0  0  0
  -10.7591  -22.3393   20.0931 C   0  0  0  0  0  0  0  0  0  0  0  0
  -12.1054  -22.6474   20.1389 C   0  0  0  0  0  0  0  0  0  0  0  0
  -12.5690  -22.1397   21.3232 N   0  0  0  0  0  0  0  0  0  0  0  0
  -11.5170  -21.5845   21.9842 C   0  0  0  0  0  0  0  0  0  0  0  0
  -10.4225  -21.6491   21.2655 N   0  0  0  0  0  0  0  0  0  0  0  0
  -10.3240  -20.1819   17.9640 C   0  0  0  0  0  0  0  0  0  0  0  0
  -11.4247  -19.9295   18.4117 O   0  0  0  0  0  0  0  0  0  0  0  0
   -9.7910  -18.9493   17.1098 C   0  0  0  0  0  0  0  0  0  0  0  0
   -8.3557  -17.7436   17.1374 N   0  0  0  0  0  0  0  0  0  0  0  0
   -8.0959  -17.3010   15.8810 C   0  0  0  0  0  0  0  0  0  0  0  0
   -7.5015  -16.1358   15.2788 C   0  0  0  0  0  0  0  0  0  0  0  0
   -7.8995  -16.5363   13.9703 C   0  0  0  0  0  0  0  0  0  0  0  0
   -8.5936  -17.0673   13.1869 N   0  0  0  0  0  0  0  0  0  0  0  0
   -7.2562  -15.9454   16.5677 C   0  0  0  0  0  0  0  0  0  0  0  0
   -8.0945  -16.4862   17.5329 N   0  0  0  0  0  0  0  0  0  0  0  0
   -7.7577  -20.4619   18.8741 H   0  0  0  0  0  0  0  0  0  0  0  0
   -7.9266  -21.8487   19.7755 H   0  0  0  0  0  0  0  0  0  0  0  0
   -8.9769  -20.4065   20.1142 H   0  0  0  0  0  0  0  0  0  0  0  0
   -8.8908  -23.2687   19.1564 H   0  0  0  0  0  0  0  0  0  0  0  0
  -10.3080  -23.1793   18.2011 H   0  0  0  0  0  0  0  0  0  0  0  0
  -12.7528  -23.1460   19.4329 H   0  0  0  0  0  0  0  0  0  0  0  0
  -13.5201  -22.1693   21.6600 H   0  0  0  0  0  0  0  0  0  0  0  0
  -11.6139  -21.1462   22.9672 H   0  0  0  0  0  0  0  0  0  0  0  0
  -10.6106  -18.2516   17.3832 H   0  0  0  0  0  0  0  0  0  0  0  0
  -10.0044  -19.1376   16.0468 H   0  0  0  0  0  0  0  0  0  0  0  0
   -8.7049  -17.8871   15.2741 H   0  0  0  0  0  0  0  0  0  0  0  0
   -6.6801  -15.0675   16.7342 H   0  0  0  0  0  0  0  0  0  0  0  0
  1  2  1  0
  2  3  1  0
  3  4  1  0
  4  5  2  0
  5  6  1  0
  6  7  1  0
  7  8  2  0
  2  9  1  0
  9 10  2  0
  9 11  1  0
 11 12  1  0
 12 13  1  0
 13 14  2  0
 14 15  1  0
 15 16  3  0
 14 17  1  0
 17 18  2  0
  8  4  1  0
 18 12  1  0
  1 19  1  0
  1 20  1  0
  1 21  1  0
  3 22  1  0
  3 23  1  0
  5 24  1  0
  6 25  1  0
  7 26  1  0
 11 27  1  0
 11 28  1  0
 13 29  1  0
 17 30  1  0
M  END
>  <Energy>  (731) 
364.52118319514159

>  <compound_id>  (731) 
48752

>  <target_id>  (731) 
1

>  <reference_id>  (731) 
99

>  <inspiration_ids>  (731) 
[99, 64]

>  <energy_score>  (731) 
311.8958853886446

>  <distance_score>  (731) 
13.250687806757456

>  <path>  (731) 
/opt/xchem-fragalysis-2/maxwin/BulkDock/SCRATCH/511025/C48752-P99/C48752-P99.minimised.mol

>  <scratch_subdir>  (731) 
/opt/xchem-fragalysis-2/maxwin/BulkDock/SCRATCH/511025/C48752-P99

>  <fragmenstein_runtime>  (731) 
15.510312795639038

>  <fragmenstein_outcome>  (731) 
too moved

>  <fragmenstein_mode>  (731) 
expansion

>  <fragmenstein_error>  (731) 


$$$$
C48752-P64
     RDKit          3D

 30 31  0  0  0  0  0  0  0  0999 V2000
  -11.6795  -16.9769   19.4740 C   0  0  0  0  0  0  0  0  0  0  0  0
  -10.4797  -16.7614   20.0645 N   0  0  0  0  0  0  0  0  0  0  0  0
  -11.6356  -16.5694   21.4677 C   0  0  0  0  0  0  0  0  0  0  0  0
  -11.7470  -17.9704   22.1935 C   0  0  0  0  0  0  0  0  0  0  0  0
  -12.8907  -18.5785   22.6890 C   0  0  0  0  0  0  0  0  0  0  0  0
  -12.5328  -19.8656   23.0052 N   0  0  0  0  0  0  0  0  0  0  0  0
  -11.2128  -19.9999   22.6908 C   0  0  0  0  0  0  0  0  0  0  0  0
  -10.6910  -18.8505   22.3140 N   0  0  0  0  0  0  0  0  0  0  0  0
   -9.3567  -15.4925   19.2026 C   0  0  0  0  0  0  0  0  0  0  0  0
   -9.2575  -14.2410   19.3767 O   0  0  0  0  0  0  0  0  0  0  0  0
   -8.2606  -16.2690   17.6832 C   0  0  0  0  0  0  0  0  0  0  0  0
   -7.2472  -15.7135   16.2565 N   0  0  0  0  0  0  0  0  0  0  0  0
   -7.5499  -15.7135   14.6066 C   0  0  0  0  0  0  0  0  0  0  0  0
   -7.5071  -14.2682   14.0635 C   0  0  0  0  0  0  0  0  0  0  0  0
   -8.1642  -12.9698   13.1881 C   0  0  0  0  0  0  0  0  0  0  0  0
   -8.6829  -12.0617   12.6762 N   0  0  0  0  0  0  0  0  0  0  0  0
   -8.3395  -14.2994   14.9561 C   0  0  0  0  0  0  0  0  0  0  0  0
   -7.1616  -14.3861   16.0842 N   0  0  0  0  0  0  0  0  0  0  0  0
  -11.4308  -17.4116   18.5012 H   0  0  0  0  0  0  0  0  0  0  0  0
  -12.2258  -17.8544   19.8666 H   0  0  0  0  0  0  0  0  0  0  0  0
  -12.1899  -16.0219   19.5491 H   0  0  0  0  0  0  0  0  0  0  0  0
  -11.5742  -15.7962   22.2352 H   0  0  0  0  0  0  0  0  0  0  0  0
  -12.6839  -16.3416   21.1752 H   0  0  0  0  0  0  0  0  0  0  0  0
  -13.9151  -18.2426   22.7731 H   0  0  0  0  0  0  0  0  0  0  0  0
  -13.1319  -20.5948   23.3759 H   0  0  0  0  0  0  0  0  0  0  0  0
  -10.6894  -20.9442   22.7781 H   0  0  0  0  0  0  0  0  0  0  0  0
   -7.5077  -16.9201   18.1374 H   0  0  0  0  0  0  0  0  0  0  0  0
   -8.6625  -17.0992   17.1408 H   0  0  0  0  0  0  0  0  0  0  0  0
   -6.8842  -16.4143   14.1191 H   0  0  0  0  0  0  0  0  0  0  0  0
   -9.1944  -13.6187   14.9103 H   0  0  0  0  0  0  0  0  0  0  0  0
  1  2  1  0
  2  3  1  0
  3  4  1  0
  4  5  2  0
  5  6  1  0
  6  7  1  0
  7  8  2  0
  2  9  1  0
  9 10  2  0
  9 11  1  0
 11 12  1  0
 12 13  1  0
 13 14  2  0
 14 15  1  0
 15 16  3  0
 14 17  1  0
 17 18  2  0
  8  4  1  0
 18 12  1  0
  1 19  1  0
  1 20  1  0
  1 21  1  0
  3 22  1  0
  3 23  1  0
  5 24  1  0
  6 25  1  0
  7 26  1  0
 11 27  1  0
 11 28  1  0
 13 29  1  0
 17 30  1  0
M  END
>  <Energy>  (732) 
635.81129368885115

>  <compound_id>  (732) 
48752

>  <target_id>  (732) 
1

>  <reference_id>  (732) 
64

>  <inspiration_ids>  (732) 
[99, 64]

>  <energy_score>  (732) 
583.1859958823483

>  <distance_score>  (732) 
11.841183951026439

>  <path>  (732) 
/opt/xchem-fragalysis-2/maxwin/BulkDock/SCRATCH/511025/C48752-P64/C48752-P64.minimised.mol

>  <scratch_subdir>  (732) 
/opt/xchem-fragalysis-2/maxwin/BulkDock/SCRATCH/511025/C48752-P64

>  <fragmenstein_runtime>  (732) 
12.612623691558838

>  <fragmenstein_outcome>  (732) 
too moved

>  <fragmenstein_mode>  (732) 
expansion

>  <fragmenstein_error>  (732) 


$$$$
C18081-P99
     RDKit          3D

 52 53  0  0  0  0  0  0  0  0999 V2000
  -10.5454   -5.1622    4.9760 C   0  0  0  0  0  0  0  0  0  0  0  0
  -10.4472   -4.1965    6.1048 C   0  0  0  0  0  0  0  0  0  0  0  0
  -11.2466   -3.4074    6.4659 O   0  0  0  0  0  0  0  0  0  0  0  0
   -9.1545   -4.4261    6.5250 N   0  0  0  0  0  0  0  0  0  0  0  0
   -8.3848   -3.7647    7.4035 C   0  0  0  0  0  0  0  0  0  0  0  0
   -8.3076   -2.3092    6.7059 C   0  0  0  0  0  0  0  0  0  0  0  0
   -6.9029   -1.7516    6.4237 C   0  0  0  0  0  0  0  0  0  0  0  0
   -6.0479   -2.5280    5.4088 C   0  0  0  0  0  0  0  0  0  0  0  0
   -4.7200   -1.7920    5.2128 C   0  0  0  0  0  0  0  0  0  0  0  0
   -6.7360   -2.7140    4.0571 C   0  0  0  0  0  0  0  0  0  0  0  0
   -8.0334   -3.6015    8.8272 C   0  0  0  0  0  0  0  0  0  0  0  0
   -7.7199   -2.4202    9.0493 O   0  0  0  0  0  0  0  0  0  0  0  0
   -7.9647   -5.0047    9.8751 N   0  0  0  0  0  0  0  0  0  0  0  0
   -6.6950   -5.6695    9.7202 C   0  0  0  0  0  0  0  0  0  0  0  0
   -5.8506   -7.0659   10.6775 C   0  0  0  0  0  0  0  0  0  0  0  0
   -6.7378   -7.2123   12.0937 C   0  0  0  0  0  0  0  0  0  0  0  0
   -6.8166   -8.5201   13.6367 N   0  0  0  0  0  0  0  0  0  0  0  0
   -6.9186   -8.1975   15.5396 C   0  0  0  0  0  0  0  0  0  0  0  0
   -7.0629   -7.1283   16.1661 O   0  0  0  0  0  0  0  0  0  0  0  0
   -6.5659   -9.8175   16.5353 C   0  0  0  0  0  0  0  0  0  0  0  0
   -7.1551  -10.7095   17.3924 N   0  0  0  0  0  0  0  0  0  0  0  0
   -6.6367  -11.8743   17.9328 C   0  0  0  0  0  0  0  0  0  0  0  0
   -5.3321  -11.6838   17.6183 C   0  0  0  0  0  0  0  0  0  0  0  0
   -5.3042  -10.4580   16.8215 N   0  0  0  0  0  0  0  0  0  0  0  0
   -7.4775   -5.1593   11.9144 C   0  0  0  0  0  0  0  0  0  0  0  0
  -11.4526   -5.5500    4.5989 H   0  0  0  0  0  0  0  0  0  0  0  0
  -10.0214   -4.6855    4.1437 H   0  0  0  0  0  0  0  0  0  0  0  0
  -10.1583   -6.1086    5.3381 H   0  0  0  0  0  0  0  0  0  0  0  0
   -8.7348   -5.1341    5.9277 H   0  0  0  0  0  0  0  0  0  0  0  0
   -7.4258   -4.2232    7.1165 H   0  0  0  0  0  0  0  0  0  0  0  0
   -8.8740   -1.5823    7.3066 H   0  0  0  0  0  0  0  0  0  0  0  0
   -8.8331   -2.2903    5.7413 H   0  0  0  0  0  0  0  0  0  0  0  0
   -6.3317   -1.6513    7.3526 H   0  0  0  0  0  0  0  0  0  0  0  0
   -7.0348   -0.7257    6.0527 H   0  0  0  0  0  0  0  0  0  0  0  0
   -5.8208   -3.5177    5.8154 H   0  0  0  0  0  0  0  0  0  0  0  0
   -4.0894   -2.3222    4.4964 H   0  0  0  0  0  0  0  0  0  0  0  0
   -4.8775   -0.7769    4.8325 H   0  0  0  0  0  0  0  0  0  0  0  0
   -4.1699   -1.7199    6.1569 H   0  0  0  0  0  0  0  0  0  0  0  0
   -7.6196   -3.3525    4.1433 H   0  0  0  0  0  0  0  0  0  0  0  0
   -7.0468   -1.7532    3.6341 H   0  0  0  0  0  0  0  0  0  0  0  0
   -6.0611   -3.1962    3.3415 H   0  0  0  0  0  0  0  0  0  0  0  0
   -6.8123   -4.9280   10.4026 H   0  0  0  0  0  0  0  0  0  0  0  0
   -6.3689   -5.2369    8.8220 H   0  0  0  0  0  0  0  0  0  0  0  0
   -4.8850   -6.6944   10.8812 H   0  0  0  0  0  0  0  0  0  0  0  0
   -5.8921   -7.9849   10.0942 H   0  0  0  0  0  0  0  0  0  0  0  0
   -7.3906   -7.9283   11.6499 H   0  0  0  0  0  0  0  0  0  0  0  0
   -6.7798   -9.5101   13.4408 H   0  0  0  0  0  0  0  0  0  0  0  0
   -7.2051  -12.5204   18.5822 H   0  0  0  0  0  0  0  0  0  0  0  0
   -4.4054  -11.9965   18.0765 H   0  0  0  0  0  0  0  0  0  0  0  0
   -4.4089  -10.0003   16.7413 H   0  0  0  0  0  0  0  0  0  0  0  0
   -8.5990   -4.8858   11.9884 H   0  0  0  0  0  0  0  0  0  0  0  0
   -7.8446   -4.9814   12.9880 H   0  0  0  0  0  0  0  0  0  0  0  0
  1  2  1  0
  2  3  2  0
  2  4  1  0
  4  5  1  0
  5  6  1  0
  6  7  1  0
  7  8  1  0
  8  9  1  0
  8 10  1  0
  5 11  1  0
 11 12  2  0
 11 13  1  0
 13 14  1  0
 14 15  1  0
 15 16  1  0
 16 17  1  0
 17 18  1  0
 18 19  2  0
 18 20  1  0
 20 21  2  0
 21 22  1  0
 22 23  2  0
 23 24  1  0
 16 25  1  0
 25 13  1  0
 24 20  1  0
  1 26  1  0
  1 27  1  0
  1 28  1  0
  4 29  1  0
  5 30  1  0
  6 31  1  0
  6 32  1  0
  7 33  1  0
  7 34  1  0
  8 35  1  0
  9 36  1  0
  9 37  1  0
  9 38  1  0
 10 39  1  0
 10 40  1  0
 10 41  1  0
 14 42  1  0
 14 43  1  0
 15 44  1  0
 15 45  1  0
 16 46  1  0
 17 47  1  0
 22 48  1  0
 23 49  1  0
 24 50  1  0
 25 51  1  0
 25 52  1  0
M  END
>  <Energy>  (733) 
914.26711111333179

>  <compound_id>  (733) 
18081

>  <target_id>  (733) 
1

>  <reference_id>  (733) 
99

>  <inspiration_ids>  (733) 
[99, 64]

>  <energy_score>  (733) 
840.2656555557222

>  <distance_score>  (733) 
11.34383498479236

>  <path>  (733) 
/opt/xchem-fragalysis-2/maxwin/BulkDock/SCRATCH/511025/C18081-P99/C18081-P99.minimised.mol

>  <scratch_subdir>  (733) 
/opt/xchem-fragalysis-2/maxwin/BulkDock/SCRATCH/511025/C18081-P99

>  <fragmenstein_runtime>  (733) 
66.8243625164032

>  <fragmenstein_outcome>  (733) 
too moved

>  <fragmenstein_mode>  (733) 
expansion

>  <fragmenstein_error>  (733) 


$$$$
C18081-P64
     RDKit          3D

 52 53  0  0  0  0  0  0  0  0999 V2000
   -5.5021   -3.0874    0.0118 C   0  0  0  0  0  0  0  0  0  0  0  0
   -6.0208   -4.3999    0.5641 C   0  0  0  0  0  0  0  0  0  0  0  0
   -6.6434   -5.1410   -0.1363 O   0  0  0  0  0  0  0  0  0  0  0  0
   -5.6109   -4.5274    1.9269 N   0  0  0  0  0  0  0  0  0  0  0  0
   -5.9025   -5.5574    2.9251 C   0  0  0  0  0  0  0  0  0  0  0  0
   -6.4140   -4.7224    4.3133 C   0  0  0  0  0  0  0  0  0  0  0  0
   -6.9362   -4.8885    5.9741 C   0  0  0  0  0  0  0  0  0  0  0  0
   -7.8374   -5.7421    7.2573 C   0  0  0  0  0  0  0  0  0  0  0  0
   -7.5647   -7.5561    8.1909 C   0  0  0  0  0  0  0  0  0  0  0  0
   -7.9655   -4.5586    8.2705 C   0  0  0  0  0  0  0  0  0  0  0  0
   -4.6782   -6.6465    2.9694 C   0  0  0  0  0  0  0  0  0  0  0  0
   -5.0223   -7.7394    3.3481 O   0  0  0  0  0  0  0  0  0  0  0  0
   -3.3679   -6.1381    2.6592 N   0  0  0  0  0  0  0  0  0  0  0  0
   -3.0508   -6.3561    1.1965 C   0  0  0  0  0  0  0  0  0  0  0  0
   -2.4578   -7.7761    0.9001 C   0  0  0  0  0  0  0  0  0  0  0  0
   -1.6939   -8.1210    2.1536 C   0  0  0  0  0  0  0  0  0  0  0  0
   -1.9554   -9.3079    3.0424 N   0  0  0  0  0  0  0  0  0  0  0  0
   -1.3121  -10.6495    3.0919 C   0  0  0  0  0  0  0  0  0  0  0  0
   -0.4801  -11.1412    2.3794 O   0  0  0  0  0  0  0  0  0  0  0  0
   -1.7055  -11.5173    4.3282 C   0  0  0  0  0  0  0  0  0  0  0  0
   -2.1216  -11.0795    5.5117 N   0  0  0  0  0  0  0  0  0  0  0  0
   -2.2704  -12.1570    6.3764 C   0  0  0  0  0  0  0  0  0  0  0  0
   -1.9348  -13.3120    5.7253 C   0  0  0  0  0  0  0  0  0  0  0  0
   -1.5479  -12.9018    4.4623 N   0  0  0  0  0  0  0  0  0  0  0  0
   -1.9910   -6.7691    2.8147 C   0  0  0  0  0  0  0  0  0  0  0  0
   -4.4094   -3.1097   -0.0300 H   0  0  0  0  0  0  0  0  0  0  0  0
   -5.8368   -2.2553    0.6380 H   0  0  0  0  0  0  0  0  0  0  0  0
   -5.8911   -2.9358   -0.9995 H   0  0  0  0  0  0  0  0  0  0  0  0
   -5.0237   -3.7383    2.1703 H   0  0  0  0  0  0  0  0  0  0  0  0
   -6.7492   -6.1026    2.5074 H   0  0  0  0  0  0  0  0  0  0  0  0
   -5.5472   -4.0735    4.4666 H   0  0  0  0  0  0  0  0  0  0  0  0
   -7.1713   -4.0331    3.9015 H   0  0  0  0  0  0  0  0  0  0  0  0
   -7.6838   -4.0761    5.8733 H   0  0  0  0  0  0  0  0  0  0  0  0
   -6.1507   -4.3514    6.5226 H   0  0  0  0  0  0  0  0  0  0  0  0
   -8.8753   -5.7309    6.8608 H   0  0  0  0  0  0  0  0  0  0  0  0
   -7.0707   -7.4811    9.1805 H   0  0  0  0  0  0  0  0  0  0  0  0
   -6.8587   -8.2241    7.6793 H   0  0  0  0  0  0  0  0  0  0  0  0
   -8.4935   -8.1319    8.3136 H   0  0  0  0  0  0  0  0  0  0  0  0
   -7.4008   -4.8348    9.1515 H   0  0  0  0  0  0  0  0  0  0  0  0
   -9.0027   -4.3760    8.5575 H   0  0  0  0  0  0  0  0  0  0  0  0
   -7.6233   -3.5938    7.8878 H   0  0  0  0  0  0  0  0  0  0  0  0
   -2.3895   -5.5499    0.8403 H   0  0  0  0  0  0  0  0  0  0  0  0
   -3.9726   -6.2601    0.6122 H   0  0  0  0  0  0  0  0  0  0  0  0
   -1.7740   -7.6824    0.0464 H   0  0  0  0  0  0  0  0  0  0  0  0
   -3.2024   -8.4977    0.5794 H   0  0  0  0  0  0  0  0  0  0  0  0
   -0.6239   -8.1933    1.9261 H   0  0  0  0  0  0  0  0  0  0  0  0
   -2.6827   -9.2583    3.7584 H   0  0  0  0  0  0  0  0  0  0  0  0
   -2.6123  -12.0074    7.3936 H   0  0  0  0  0  0  0  0  0  0  0  0
   -1.9016  -14.3488    6.0263 H   0  0  0  0  0  0  0  0  0  0  0  0
   -1.1719  -13.4870    3.7296 H   0  0  0  0  0  0  0  0  0  0  0  0
   -1.2285   -6.0163    2.5430 H   0  0  0  0  0  0  0  0  0  0  0  0
   -1.8667   -6.8528    3.8913 H   0  0  0  0  0  0  0  0  0  0  0  0
  1  2  1  0
  2  3  2  0
  2  4  1  0
  4  5  1  0
  5  6  1  0
  6  7  1  0
  7  8  1  0
  8  9  1  0
  8 10  1  0
  5 11  1  0
 11 12  2  0
 11 13  1  0
 13 14  1  0
 14 15  1  0
 15 16  1  0
 16 17  1  0
 17 18  1  0
 18 19  2  0
 18 20  1  0
 20 21  2  0
 21 22  1  0
 22 23  2  0
 23 24  1  0
 16 25  1  0
 25 13  1  0
 24 20  1  0
  1 26  1  0
  1 27  1  0
  1 28  1  0
  4 29  1  0
  5 30  1  0
  6 31  1  0
  6 32  1  0
  7 33  1  0
  7 34  1  0
  8 35  1  0
  9 36  1  0
  9 37  1  0
  9 38  1  0
 10 39  1  0
 10 40  1  0
 10 41  1  0
 14 42  1  0
 14 43  1  0
 15 44  1  0
 15 45  1  0
 16 46  1  0
 17 47  1  0
 22 48  1  0
 23 49  1  0
 24 50  1  0
 25 51  1  0
 25 52  1  0
M  END
>  <Energy>  (734) 
305.99940849733173

>  <compound_id>  (734) 
18081

>  <target_id>  (734) 
1

>  <reference_id>  (734) 
64

>  <inspiration_ids>  (734) 
[99, 64]

>  <energy_score>  (734) 
231.99795293969908

>  <distance_score>  (734) 
16.893755570336783

>  <path>  (734) 
/opt/xchem-fragalysis-2/maxwin/BulkDock/SCRATCH/511025/C18081-P64/C18081-P64.minimised.mol

>  <scratch_subdir>  (734) 
/opt/xchem-fragalysis-2/maxwin/BulkDock/SCRATCH/511025/C18081-P64

>  <fragmenstein_runtime>  (734) 
45.97529411315918

>  <fragmenstein_outcome>  (734) 
too moved

>  <fragmenstein_mode>  (734) 
expansion

>  <fragmenstein_error>  (734) 


$$$$
C46375-P99
     RDKit          3D

 49 50  0  0  0  0  0  0  0  0999 V2000
   -6.5388   -7.1468    9.8258 C   0  0  0  0  0  0  0  0  0  0  0  0
   -7.1150   -7.7777    8.5395 C   0  0  0  0  0  0  0  0  0  0  0  0
   -7.7926   -5.9860    7.6612 C   0  0  0  0  0  0  0  0  0  0  0  0
   -5.3224   -8.6835    9.6810 S   0  0  0  0  0  0  0  0  0  0  0  0
   -4.4169  -10.8063    9.6914 C   0  0  0  0  0  0  0  0  0  0  0  0
   -3.6156  -10.3049   10.8703 C   0  0  0  0  0  0  0  0  0  0  0  0
   -2.8585  -11.5824    9.0428 C   0  0  0  0  0  0  0  0  0  0  0  0
   -2.0545  -11.0011    8.3524 O   0  0  0  0  0  0  0  0  0  0  0  0
   -2.8036  -12.9475    9.6350 N   0  0  0  0  0  0  0  0  0  0  0  0
   -3.4177  -13.9637    8.6808 C   0  0  0  0  0  0  0  0  0  0  0  0
   -3.3590  -15.4218    9.1603 C   0  0  0  0  0  0  0  0  0  0  0  0
   -2.1512  -15.4296   10.0612 C   0  0  0  0  0  0  0  0  0  0  0  0
   -2.4823  -15.8555   11.4942 N   0  0  0  0  0  0  0  0  0  0  0  0
   -1.8687  -16.8931   12.3681 C   0  0  0  0  0  0  0  0  0  0  0  0
   -0.9095  -17.5963   12.1903 O   0  0  0  0  0  0  0  0  0  0  0  0
   -2.6553  -17.1250   13.7784 C   0  0  0  0  0  0  0  0  0  0  0  0
   -2.1528  -18.3806   14.6495 C   0  0  0  0  0  0  0  0  0  0  0  0
   -2.7553  -18.7623   16.0101 C   0  0  0  0  0  0  0  0  0  0  0  0
   -2.7717  -18.0979   17.2230 C   0  0  0  0  0  0  0  0  0  0  0  0
   -3.4021  -18.9300   18.1195 N   0  0  0  0  0  0  0  0  0  0  0  0
   -3.6971  -20.0897   17.4659 C   0  0  0  0  0  0  0  0  0  0  0  0
   -3.3139  -20.0281   16.2082 N   0  0  0  0  0  0  0  0  0  0  0  0
   -1.6756  -13.9889    9.6511 C   0  0  0  0  0  0  0  0  0  0  0  0
   -6.9765   -7.7940   10.5933 H   0  0  0  0  0  0  0  0  0  0  0  0
   -5.6296   -6.7241   10.3822 H   0  0  0  0  0  0  0  0  0  0  0  0
   -6.7783   -6.0919    9.6227 H   0  0  0  0  0  0  0  0  0  0  0  0
   -7.9785   -8.3941    8.7375 H   0  0  0  0  0  0  0  0  0  0  0  0
   -8.8822   -5.9173    7.4327 H   0  0  0  0  0  0  0  0  0  0  0  0
   -7.3206   -5.7513    6.6717 H   0  0  0  0  0  0  0  0  0  0  0  0
   -7.5626   -5.0963    8.2839 H   0  0  0  0  0  0  0  0  0  0  0  0
   -5.0341  -11.4841   10.1523 H   0  0  0  0  0  0  0  0  0  0  0  0
   -2.5242  -10.2594   10.7727 H   0  0  0  0  0  0  0  0  0  0  0  0
   -3.9219   -9.4117   11.4056 H   0  0  0  0  0  0  0  0  0  0  0  0
   -3.8969  -11.1226   11.5021 H   0  0  0  0  0  0  0  0  0  0  0  0
   -4.4491  -13.6757    8.4999 H   0  0  0  0  0  0  0  0  0  0  0  0
   -2.9570  -13.8511    7.6832 H   0  0  0  0  0  0  0  0  0  0  0  0
   -4.2750  -15.7486    9.6609 H   0  0  0  0  0  0  0  0  0  0  0  0
   -3.2238  -16.0846    8.2977 H   0  0  0  0  0  0  0  0  0  0  0  0
   -1.4014  -16.1535    9.7234 H   0  0  0  0  0  0  0  0  0  0  0  0
   -3.3339  -15.5167   11.9272 H   0  0  0  0  0  0  0  0  0  0  0  0
   -2.5122  -16.2173   14.3724 H   0  0  0  0  0  0  0  0  0  0  0  0
   -3.7193  -17.2448   13.5515 H   0  0  0  0  0  0  0  0  0  0  0  0
   -2.2370  -19.2629   14.0007 H   0  0  0  0  0  0  0  0  0  0  0  0
   -1.0757  -18.2422   14.8154 H   0  0  0  0  0  0  0  0  0  0  0  0
   -2.3823  -17.1365   17.5193 H   0  0  0  0  0  0  0  0  0  0  0  0
   -3.5833  -18.7354   19.0942 H   0  0  0  0  0  0  0  0  0  0  0  0
   -4.1807  -20.9309   17.9441 H   0  0  0  0  0  0  0  0  0  0  0  0
   -0.9495  -13.6316   10.3912 H   0  0  0  0  0  0  0  0  0  0  0  0
   -1.1175  -13.9683    8.6993 H   0  0  0  0  0  0  0  0  0  0  0  0
  1  2  1  0
  2  3  1  0
  2  4  1  0
  4  5  1  0
  5  6  1  0
  5  7  1  0
  7  8  2  0
  7  9  1  0
  9 10  1  0
 10 11  1  0
 11 12  1  0
 12 13  1  0
 13 14  1  0
 14 15  2  0
 14 16  1  0
 16 17  1  0
 17 18  1  0
 18 19  2  0
 19 20  1  0
 20 21  1  0
 21 22  2  0
 12 23  1  0
 23  9  1  0
 22 18  1  0
  1 24  1  0
  1 25  1  0
  1 26  1  0
  2 27  1  0
  3 28  1  0
  3 29  1  0
  3 30  1  0
  5 31  1  0
  6 32  1  0
  6 33  1  0
  6 34  1  0
 10 35  1  0
 10 36  1  0
 11 37  1  0
 11 38  1  0
 12 39  1  0
 13 40  1  0
 16 41  1  0
 16 42  1  0
 17 43  1  0
 17 44  1  0
 19 45  1  0
 20 46  1  0
 21 47  1  0
 23 48  1  0
 23 49  1  0
M  END
>  <Energy>  (735) 
516.39876691149811

>  <compound_id>  (735) 
46375

>  <target_id>  (735) 
1

>  <reference_id>  (735) 
99

>  <inspiration_ids>  (735) 
[99, 64]

>  <energy_score>  (735) 
455.54543829656507

>  <distance_score>  (735) 
13.16560769754633

>  <path>  (735) 
/opt/xchem-fragalysis-2/maxwin/BulkDock/SCRATCH/511025/C46375-P99/C46375-P99.minimised.mol

>  <scratch_subdir>  (735) 
/opt/xchem-fragalysis-2/maxwin/BulkDock/SCRATCH/511025/C46375-P99

>  <fragmenstein_runtime>  (735) 
79.13321042060852

>  <fragmenstein_outcome>  (735) 
too moved

>  <fragmenstein_mode>  (735) 
expansion

>  <fragmenstein_error>  (735) 


$$$$
C46375-P64
     RDKit          3D

 49 50  0  0  0  0  0  0  0  0999 V2000
   -7.7423   -3.0048    7.8782 C   0  0  0  0  0  0  0  0  0  0  0  0
   -8.1873   -4.4560    8.2147 C   0  0  0  0  0  0  0  0  0  0  0  0
   -8.4297   -4.9899    6.8340 C   0  0  0  0  0  0  0  0  0  0  0  0
   -6.9087   -5.5741    9.4717 S   0  0  0  0  0  0  0  0  0  0  0  0
   -7.1231   -7.9238   10.1446 C   0  0  0  0  0  0  0  0  0  0  0  0
   -5.6427   -8.2934    9.9654 C   0  0  0  0  0  0  0  0  0  0  0  0
   -8.7710   -8.7960   11.1044 C   0  0  0  0  0  0  0  0  0  0  0  0
   -9.6997   -9.1652   10.4278 O   0  0  0  0  0  0  0  0  0  0  0  0
   -8.7852   -9.1342   12.8256 N   0  0  0  0  0  0  0  0  0  0  0  0
   -8.2338  -10.2538   13.1856 C   0  0  0  0  0  0  0  0  0  0  0  0
   -8.0993  -10.2544   14.5375 C   0  0  0  0  0  0  0  0  0  0  0  0
   -8.9910  -11.4357   14.7728 C   0  0  0  0  0  0  0  0  0  0  0  0
   -8.5736  -12.1807   16.5247 N   0  0  0  0  0  0  0  0  0  0  0  0
   -9.5806  -12.3634   17.9618 C   0  0  0  0  0  0  0  0  0  0  0  0
  -10.7089  -11.9587   18.1087 O   0  0  0  0  0  0  0  0  0  0  0  0
   -8.7680  -13.2809   19.1221 C   0  0  0  0  0  0  0  0  0  0  0  0
   -9.7076  -14.0782   20.2206 C   0  0  0  0  0  0  0  0  0  0  0  0
   -9.7216  -15.6012   20.5105 C   0  0  0  0  0  0  0  0  0  0  0  0
   -9.2621  -16.7045   19.8160 C   0  0  0  0  0  0  0  0  0  0  0  0
   -9.5942  -17.8076   20.5623 N   0  0  0  0  0  0  0  0  0  0  0  0
  -10.2957  -17.3750   21.6457 C   0  0  0  0  0  0  0  0  0  0  0  0
  -10.4083  -16.0664   21.6429 N   0  0  0  0  0  0  0  0  0  0  0  0
   -9.9437   -9.9818   13.8451 C   0  0  0  0  0  0  0  0  0  0  0  0
   -7.7116   -2.3405    8.7356 H   0  0  0  0  0  0  0  0  0  0  0  0
   -6.7734   -2.9891    7.3651 H   0  0  0  0  0  0  0  0  0  0  0  0
   -8.4659   -2.5143    7.2133 H   0  0  0  0  0  0  0  0  0  0  0  0
   -9.1085   -4.3545    8.7838 H   0  0  0  0  0  0  0  0  0  0  0  0
   -7.4885   -5.3289    6.4012 H   0  0  0  0  0  0  0  0  0  0  0  0
   -9.2087   -5.7388    6.8503 H   0  0  0  0  0  0  0  0  0  0  0  0
   -8.8381   -4.2386    6.1454 H   0  0  0  0  0  0  0  0  0  0  0  0
   -6.6551   -7.7480   11.1591 H   0  0  0  0  0  0  0  0  0  0  0  0
   -4.9978   -7.5453   10.4540 H   0  0  0  0  0  0  0  0  0  0  0  0
   -5.1432   -9.1546   10.3819 H   0  0  0  0  0  0  0  0  0  0  0  0
   -5.5562   -8.4763    8.9014 H   0  0  0  0  0  0  0  0  0  0  0  0
   -8.6197  -11.1723   12.6716 H   0  0  0  0  0  0  0  0  0  0  0  0
   -7.1994   -9.8582   13.2939 H   0  0  0  0  0  0  0  0  0  0  0  0
   -8.4820   -9.2846   14.7830 H   0  0  0  0  0  0  0  0  0  0  0  0
   -7.1655   -9.9466   15.0041 H   0  0  0  0  0  0  0  0  0  0  0  0
   -8.9580  -12.3181   14.1220 H   0  0  0  0  0  0  0  0  0  0  0  0
   -7.7576  -12.6660   16.6489 H   0  0  0  0  0  0  0  0  0  0  0  0
   -8.2491  -14.0701   18.6339 H   0  0  0  0  0  0  0  0  0  0  0  0
   -7.8115  -12.8125   19.3340 H   0  0  0  0  0  0  0  0  0  0  0  0
  -10.7236  -13.9260   19.8997 H   0  0  0  0  0  0  0  0  0  0  0  0
   -9.6933  -13.5644   21.1843 H   0  0  0  0  0  0  0  0  0  0  0  0
   -8.7340  -16.8032   18.8798 H   0  0  0  0  0  0  0  0  0  0  0  0
   -9.3831  -18.7696   20.3347 H   0  0  0  0  0  0  0  0  0  0  0  0
  -10.7015  -18.0492   22.3850 H   0  0  0  0  0  0  0  0  0  0  0  0
  -10.4566  -10.3784   12.9711 H   0  0  0  0  0  0  0  0  0  0  0  0
  -10.4967   -9.2676   14.4405 H   0  0  0  0  0  0  0  0  0  0  0  0
  1  2  1  0
  2  3  1  0
  2  4  1  0
  4  5  1  0
  5  6  1  0
  5  7  1  0
  7  8  2  0
  7  9  1  0
  9 10  1  0
 10 11  1  0
 11 12  1  0
 12 13  1  0
 13 14  1  0
 14 15  2  0
 14 16  1  0
 16 17  1  0
 17 18  1  0
 18 19  2  0
 19 20  1  0
 20 21  1  0
 21 22  2  0
 12 23  1  0
 23  9  1  0
 22 18  1  0
  1 24  1  0
  1 25  1  0
  1 26  1  0
  2 27  1  0
  3 28  1  0
  3 29  1  0
  3 30  1  0
  5 31  1  0
  6 32  1  0
  6 33  1  0
  6 34  1  0
 10 35  1  0
 10 36  1  0
 11 37  1  0
 11 38  1  0
 12 39  1  0
 13 40  1  0
 16 41  1  0
 16 42  1  0
 17 43  1  0
 17 44  1  0
 19 45  1  0
 20 46  1  0
 21 47  1  0
 23 48  1  0
 23 49  1  0
M  END
>  <Energy>  (736) 
749.36360611654061

>  <compound_id>  (736) 
46375

>  <target_id>  (736) 
1

>  <reference_id>  (736) 
64

>  <inspiration_ids>  (736) 
[99, 64]

>  <energy_score>  (736) 
688.5102775016171

>  <distance_score>  (736) 
10.539691686930205

>  <path>  (736) 
/opt/xchem-fragalysis-2/maxwin/BulkDock/SCRATCH/511025/C46375-P64/C46375-P64.minimised.mol

>  <scratch_subdir>  (736) 
/opt/xchem-fragalysis-2/maxwin/BulkDock/SCRATCH/511025/C46375-P64

>  <fragmenstein_runtime>  (736) 
34.87214112281799

>  <fragmenstein_outcome>  (736) 
too moved

>  <fragmenstein_mode>  (736) 
expansion

>  <fragmenstein_error>  (736) 


$$$$
C18082-P99
     RDKit          3D

 47 48  0  0  0  0  0  0  0  0999 V2000
  -11.6895  -17.6819   19.0025 C   0  0  0  0  0  0  0  0  0  0  0  0
  -10.8505  -16.2881   19.6873 C   0  0  0  0  0  0  0  0  0  0  0  0
  -12.1039  -16.1596   20.7271 C   0  0  0  0  0  0  0  0  0  0  0  0
   -9.1109  -15.3966   19.3531 N   0  0  0  0  0  0  0  0  0  0  0  0
   -7.9574  -16.5124   20.3715 C   0  0  0  0  0  0  0  0  0  0  0  0
   -8.8170  -13.4507   19.2777 C   0  0  0  0  0  0  0  0  0  0  0  0
   -7.6537  -11.8733   18.6871 C   0  0  0  0  0  0  0  0  0  0  0  0
   -6.5466  -12.1727   18.2489 O   0  0  0  0  0  0  0  0  0  0  0  0
   -8.3579  -10.1568   19.0090 N   0  0  0  0  0  0  0  0  0  0  0  0
   -7.6494   -8.4276   18.7858 C   0  0  0  0  0  0  0  0  0  0  0  0
   -6.6669   -7.1430   17.9214 C   0  0  0  0  0  0  0  0  0  0  0  0
   -6.8685   -6.4134   16.4842 C   0  0  0  0  0  0  0  0  0  0  0  0
   -5.6655   -5.5572   16.3529 C   0  0  0  0  0  0  0  0  0  0  0  0
   -4.9283   -6.1845   17.4833 C   0  0  0  0  0  0  0  0  0  0  0  0
   -5.6902   -6.1708   18.7601 N   0  0  0  0  0  0  0  0  0  0  0  0
   -5.8767   -4.8191   19.2073 C   0  0  0  0  0  0  0  0  0  0  0  0
   -6.7687   -4.0438   18.9948 O   0  0  0  0  0  0  0  0  0  0  0  0
   -4.7048   -4.3732   19.9453 C   0  0  0  0  0  0  0  0  0  0  0  0
   -4.3306   -3.1034   19.8872 N   0  0  0  0  0  0  0  0  0  0  0  0
   -2.9695   -3.1123   19.9781 C   0  0  0  0  0  0  0  0  0  0  0  0
   -2.5087   -4.3906   20.1736 C   0  0  0  0  0  0  0  0  0  0  0  0
   -3.6307   -5.1668   20.2627 N   0  0  0  0  0  0  0  0  0  0  0  0
  -11.3993  -17.9273   17.9771 H   0  0  0  0  0  0  0  0  0  0  0  0
  -11.6011  -18.5574   19.6706 H   0  0  0  0  0  0  0  0  0  0  0  0
  -12.7752  -17.5602   19.0219 H   0  0  0  0  0  0  0  0  0  0  0  0
  -10.2889  -16.9865   20.0857 H   0  0  0  0  0  0  0  0  0  0  0  0
  -11.8421  -15.8031   21.7066 H   0  0  0  0  0  0  0  0  0  0  0  0
  -12.9615  -15.6766   20.2707 H   0  0  0  0  0  0  0  0  0  0  0  0
  -12.5022  -17.1440   21.0273 H   0  0  0  0  0  0  0  0  0  0  0  0
   -8.1137  -17.0470   21.2924 H   0  0  0  0  0  0  0  0  0  0  0  0
   -7.4167  -17.1477   19.6428 H   0  0  0  0  0  0  0  0  0  0  0  0
   -6.9747  -16.2724   20.6694 H   0  0  0  0  0  0  0  0  0  0  0  0
   -9.7219  -13.1144   18.7608 H   0  0  0  0  0  0  0  0  0  0  0  0
   -9.0326  -13.3705   20.3153 H   0  0  0  0  0  0  0  0  0  0  0  0
   -9.2919  -10.2227   19.2747 H   0  0  0  0  0  0  0  0  0  0  0  0
   -8.5884   -7.8724   18.8987 H   0  0  0  0  0  0  0  0  0  0  0  0
   -7.4400   -8.1390   19.8021 H   0  0  0  0  0  0  0  0  0  0  0  0
   -7.4728   -6.4858   18.3138 H   0  0  0  0  0  0  0  0  0  0  0  0
   -6.9496   -7.0780   15.6375 H   0  0  0  0  0  0  0  0  0  0  0  0
   -7.7199   -5.7176   16.4536 H   0  0  0  0  0  0  0  0  0  0  0  0
   -5.8986   -4.5030   16.5387 H   0  0  0  0  0  0  0  0  0  0  0  0
   -5.1487   -5.5942   15.3939 H   0  0  0  0  0  0  0  0  0  0  0  0
   -4.0489   -5.5412   17.6308 H   0  0  0  0  0  0  0  0  0  0  0  0
   -4.4469   -7.1538   17.3467 H   0  0  0  0  0  0  0  0  0  0  0  0
   -2.3924   -2.1997   19.8982 H   0  0  0  0  0  0  0  0  0  0  0  0
   -1.5128   -4.7974   20.2767 H   0  0  0  0  0  0  0  0  0  0  0  0
   -3.6591   -6.1759   20.2737 H   0  0  0  0  0  0  0  0  0  0  0  0
  1  2  1  0
  2  3  1  0
  2  4  1  0
  4  5  1  0
  4  6  1  0
  6  7  1  0
  7  8  2  0
  7  9  1  0
  9 10  1  0
 10 11  1  0
 11 12  1  0
 12 13  1  0
 13 14  1  0
 14 15  1  0
 15 16  1  0
 16 17  2  0
 16 18  1  0
 18 19  2  0
 19 20  1  0
 20 21  2  0
 21 22  1  0
 15 11  1  0
 22 18  1  0
  1 23  1  0
  1 24  1  0
  1 25  1  0
  2 26  1  0
  3 27  1  0
  3 28  1  0
  3 29  1  0
  5 30  1  0
  5 31  1  0
  5 32  1  0
  6 33  1  0
  6 34  1  0
  9 35  1  0
 10 36  1  0
 10 37  1  0
 11 38  1  0
 12 39  1  0
 12 40  1  0
 13 41  1  0
 13 42  1  0
 14 43  1  0
 14 44  1  0
 20 45  1  0
 21 46  1  0
 22 47  1  0
M  END
>  <Energy>  (737) 
802.77274649504352

>  <compound_id>  (737) 
18082

>  <target_id>  (737) 
1

>  <reference_id>  (737) 
99

>  <inspiration_ids>  (737) 
[99, 64]

>  <energy_score>  (737) 
677.3162925359607

>  <distance_score>  (737) 
13.402023523526854

>  <path>  (737) 
/opt/xchem-fragalysis-2/maxwin/BulkDock/SCRATCH/511025/C18082-P99/C18082-P99.minimised.mol

>  <scratch_subdir>  (737) 
/opt/xchem-fragalysis-2/maxwin/BulkDock/SCRATCH/511025/C18082-P99

>  <fragmenstein_runtime>  (737) 
42.41879439353943

>  <fragmenstein_outcome>  (737) 
too moved

>  <fragmenstein_mode>  (737) 
expansion

>  <fragmenstein_error>  (737) 


$$$$
C18082-P64
     RDKit          3D

 47 48  0  0  0  0  0  0  0  0999 V2000
   -7.1213  -21.4651   21.7578 C   0  0  0  0  0  0  0  0  0  0  0  0
   -6.8839  -19.9317   21.7263 C   0  0  0  0  0  0  0  0  0  0  0  0
   -5.9178  -19.7068   20.5382 C   0  0  0  0  0  0  0  0  0  0  0  0
   -8.0884  -19.0788   21.6126 N   0  0  0  0  0  0  0  0  0  0  0  0
   -9.3811  -19.6437   22.0089 C   0  0  0  0  0  0  0  0  0  0  0  0
   -7.8868  -17.4337   21.6411 C   0  0  0  0  0  0  0  0  0  0  0  0
   -7.9270  -16.2795   20.1629 C   0  0  0  0  0  0  0  0  0  0  0  0
   -7.4132  -16.8493   19.1969 O   0  0  0  0  0  0  0  0  0  0  0  0
   -8.4458  -14.3790   20.0116 N   0  0  0  0  0  0  0  0  0  0  0  0
   -8.1731  -13.0471   18.5852 C   0  0  0  0  0  0  0  0  0  0  0  0
   -7.2890  -11.3177   17.8297 C   0  0  0  0  0  0  0  0  0  0  0  0
   -8.2258  -11.9259   16.1950 C   0  0  0  0  0  0  0  0  0  0  0  0
   -8.0726  -10.6490   14.7240 C   0  0  0  0  0  0  0  0  0  0  0  0
   -6.7093  -10.0337   16.0223 C   0  0  0  0  0  0  0  0  0  0  0  0
   -7.3519   -9.4147   17.1235 N   0  0  0  0  0  0  0  0  0  0  0  0
   -6.4919   -7.9739   17.5827 C   0  0  0  0  0  0  0  0  0  0  0  0
   -5.5859   -7.8145   18.3846 O   0  0  0  0  0  0  0  0  0  0  0  0
   -6.7880   -6.6515   16.8212 C   0  0  0  0  0  0  0  0  0  0  0  0
   -7.2751   -6.4729   15.5911 N   0  0  0  0  0  0  0  0  0  0  0  0
   -7.2384   -5.1329   15.3134 C   0  0  0  0  0  0  0  0  0  0  0  0
   -6.6464   -4.4603   16.3470 C   0  0  0  0  0  0  0  0  0  0  0  0
   -6.3477   -5.4218   17.2761 N   0  0  0  0  0  0  0  0  0  0  0  0
   -7.7829  -21.8099   22.5471 H   0  0  0  0  0  0  0  0  0  0  0  0
   -7.5498  -21.8066   20.8075 H   0  0  0  0  0  0  0  0  0  0  0  0
   -6.1697  -21.9921   21.8945 H   0  0  0  0  0  0  0  0  0  0  0  0
   -6.3484  -19.6364   22.6284 H   0  0  0  0  0  0  0  0  0  0  0  0
   -5.5031  -18.6967   20.4977 H   0  0  0  0  0  0  0  0  0  0  0  0
   -5.0559  -20.3807   20.6117 H   0  0  0  0  0  0  0  0  0  0  0  0
   -6.4124  -19.9102   19.5823 H   0  0  0  0  0  0  0  0  0  0  0  0
   -9.6899  -19.2726   22.9824 H   0  0  0  0  0  0  0  0  0  0  0  0
   -9.4253  -20.7334   21.9941 H   0  0  0  0  0  0  0  0  0  0  0  0
  -10.1963  -19.3878   21.3253 H   0  0  0  0  0  0  0  0  0  0  0  0
   -7.7668  -17.1430   22.6806 H   0  0  0  0  0  0  0  0  0  0  0  0
   -6.8217  -17.5833   21.4476 H   0  0  0  0  0  0  0  0  0  0  0  0
   -8.9117  -14.1078   20.8338 H   0  0  0  0  0  0  0  0  0  0  0  0
   -9.1244  -12.5599   18.7865 H   0  0  0  0  0  0  0  0  0  0  0  0
   -7.3644  -12.8120   19.2841 H   0  0  0  0  0  0  0  0  0  0  0  0
   -6.2421  -11.6680   17.8821 H   0  0  0  0  0  0  0  0  0  0  0  0
   -7.9910  -12.9726   16.4094 H   0  0  0  0  0  0  0  0  0  0  0  0
   -9.1193  -12.1658   15.5963 H   0  0  0  0  0  0  0  0  0  0  0  0
   -7.8412  -11.1877   13.7883 H   0  0  0  0  0  0  0  0  0  0  0  0
   -8.8875   -9.9260   14.5481 H   0  0  0  0  0  0  0  0  0  0  0  0
   -5.7517  -10.1453   15.5412 H   0  0  0  0  0  0  0  0  0  0  0  0
   -6.0321  -10.6305   16.6092 H   0  0  0  0  0  0  0  0  0  0  0  0
   -7.6305   -4.7351   14.3877 H   0  0  0  0  0  0  0  0  0  0  0  0
   -6.4124   -3.4171   16.5028 H   0  0  0  0  0  0  0  0  0  0  0  0
   -5.8528   -5.2984   18.1488 H   0  0  0  0  0  0  0  0  0  0  0  0
  1  2  1  0
  2  3  1  0
  2  4  1  0
  4  5  1  0
  4  6  1  0
  6  7  1  0
  7  8  2  0
  7  9  1  0
  9 10  1  0
 10 11  1  0
 11 12  1  0
 12 13  1  0
 13 14  1  0
 14 15  1  0
 15 16  1  0
 16 17  2  0
 16 18  1  0
 18 19  2  0
 19 20  1  0
 20 21  2  0
 21 22  1  0
 15 11  1  0
 22 18  1  0
  1 23  1  0
  1 24  1  0
  1 25  1  0
  2 26  1  0
  3 27  1  0
  3 28  1  0
  3 29  1  0
  5 30  1  0
  5 31  1  0
  5 32  1  0
  6 33  1  0
  6 34  1  0
  9 35  1  0
 10 36  1  0
 10 37  1  0
 11 38  1  0
 12 39  1  0
 12 40  1  0
 13 41  1  0
 13 42  1  0
 14 43  1  0
 14 44  1  0
 20 45  1  0
 21 46  1  0
 22 47  1  0
M  END
>  <Energy>  (738) 
953.58297299878939

>  <compound_id>  (738) 
18082

>  <target_id>  (738) 
1

>  <reference_id>  (738) 
64

>  <inspiration_ids>  (738) 
[99, 64]

>  <energy_score>  (738) 
828.1265190397091

>  <distance_score>  (738) 
11.468863641454746

>  <path>  (738) 
/opt/xchem-fragalysis-2/maxwin/BulkDock/SCRATCH/511025/C18082-P64/C18082-P64.minimised.mol

>  <scratch_subdir>  (738) 
/opt/xchem-fragalysis-2/maxwin/BulkDock/SCRATCH/511025/C18082-P64

>  <fragmenstein_runtime>  (738) 
42.124157428741455

>  <fragmenstein_outcome>  (738) 
too moved

>  <fragmenstein_mode>  (738) 
expansion

>  <fragmenstein_error>  (738) 


$$$$
C18083-P99
     RDKit          3D

 50 51  0  0  0  0  0  0  0  0999 V2000
   -6.4162  -20.0401   21.3870 C   0  0  0  0  0  0  0  0  0  0  0  0
   -5.5087  -21.1837   20.9170 C   0  0  0  0  0  0  0  0  0  0  0  0
   -5.6654  -22.4364   21.7981 C   0  0  0  0  0  0  0  0  0  0  0  0
   -5.6325  -21.4840   19.4656 N   0  0  0  0  0  0  0  0  0  0  0  0
   -6.9469  -22.0504   19.1308 C   0  0  0  0  0  0  0  0  0  0  0  0
   -5.2807  -20.2955   18.5948 C   0  0  0  0  0  0  0  0  0  0  0  0
   -4.6509  -20.6048   17.1598 C   0  0  0  0  0  0  0  0  0  0  0  0
   -4.6732  -21.7150   16.7069 O   0  0  0  0  0  0  0  0  0  0  0  0
   -4.1037  -19.3524   16.6037 N   0  0  0  0  0  0  0  0  0  0  0  0
   -3.3255  -19.0953   15.3584 C   0  0  0  0  0  0  0  0  0  0  0  0
   -4.0960  -18.2340   14.2935 C   0  0  0  0  0  0  0  0  0  0  0  0
   -5.0962  -19.1090   13.5505 C   0  0  0  0  0  0  0  0  0  0  0  0
   -5.3186  -18.3119   12.3134 C   0  0  0  0  0  0  0  0  0  0  0  0
   -4.5833  -17.0735   12.7231 C   0  0  0  0  0  0  0  0  0  0  0  0
   -3.2239  -17.4557   13.2327 N   0  0  0  0  0  0  0  0  0  0  0  0
   -2.3967  -16.2867   13.3724 C   0  0  0  0  0  0  0  0  0  0  0  0
   -2.2289  -15.5526   14.3164 O   0  0  0  0  0  0  0  0  0  0  0  0
   -1.7260  -15.9121   12.0325 C   0  0  0  0  0  0  0  0  0  0  0  0
   -2.3270  -14.5915   11.5318 C   0  0  0  0  0  0  0  0  0  0  0  0
   -2.9907  -14.3711   10.4067 N   0  0  0  0  0  0  0  0  0  0  0  0
   -3.3497  -13.0416   10.4185 C   0  0  0  0  0  0  0  0  0  0  0  0
   -2.8975  -12.4338   11.5626 C   0  0  0  0  0  0  0  0  0  0  0  0
   -2.2496  -13.4228   12.2603 N   0  0  0  0  0  0  0  0  0  0  0  0
   -6.0672  -19.6542   22.3460 H   0  0  0  0  0  0  0  0  0  0  0  0
   -7.4571  -20.3601   21.4959 H   0  0  0  0  0  0  0  0  0  0  0  0
   -6.3944  -19.1838   20.7064 H   0  0  0  0  0  0  0  0  0  0  0  0
   -4.4712  -20.8537   21.0647 H   0  0  0  0  0  0  0  0  0  0  0  0
   -5.1731  -23.3015   21.3392 H   0  0  0  0  0  0  0  0  0  0  0  0
   -6.7169  -22.6866   21.9635 H   0  0  0  0  0  0  0  0  0  0  0  0
   -5.1687  -22.2761   22.7583 H   0  0  0  0  0  0  0  0  0  0  0  0
   -7.7657  -21.3550   19.3422 H   0  0  0  0  0  0  0  0  0  0  0  0
   -7.1314  -22.9871   19.6655 H   0  0  0  0  0  0  0  0  0  0  0  0
   -6.9891  -22.2985   18.0647 H   0  0  0  0  0  0  0  0  0  0  0  0
   -6.1562  -19.6558   18.4407 H   0  0  0  0  0  0  0  0  0  0  0  0
   -4.5151  -19.7074   19.1178 H   0  0  0  0  0  0  0  0  0  0  0  0
   -4.1857  -18.6172   17.2967 H   0  0  0  0  0  0  0  0  0  0  0  0
   -2.4266  -18.5564   15.6760 H   0  0  0  0  0  0  0  0  0  0  0  0
   -3.0137  -20.0579   14.9405 H   0  0  0  0  0  0  0  0  0  0  0  0
   -4.5953  -17.4781   14.9270 H   0  0  0  0  0  0  0  0  0  0  0  0
   -4.6955  -20.0978   13.3022 H   0  0  0  0  0  0  0  0  0  0  0  0
   -6.0113  -19.2495   14.1352 H   0  0  0  0  0  0  0  0  0  0  0  0
   -6.3751  -18.1803   12.0822 H   0  0  0  0  0  0  0  0  0  0  0  0
   -4.8394  -18.7893   11.4509 H   0  0  0  0  0  0  0  0  0  0  0  0
   -4.4332  -16.4665   11.8218 H   0  0  0  0  0  0  0  0  0  0  0  0
   -5.1463  -16.4191   13.3888 H   0  0  0  0  0  0  0  0  0  0  0  0
   -1.8835  -16.6950   11.2837 H   0  0  0  0  0  0  0  0  0  0  0  0
   -0.6491  -15.8016   12.1949 H   0  0  0  0  0  0  0  0  0  0  0  0
   -3.9130  -12.6035    9.6049 H   0  0  0  0  0  0  0  0  0  0  0  0
   -2.9823  -11.4252   11.9400 H   0  0  0  0  0  0  0  0  0  0  0  0
   -1.8341  -13.3435   13.1803 H   0  0  0  0  0  0  0  0  0  0  0  0
  1  2  1  0
  2  3  1  0
  2  4  1  0
  4  5  1  0
  4  6  1  0
  6  7  1  0
  7  8  2  0
  7  9  1  0
  9 10  1  0
 10 11  1  0
 11 12  1  0
 12 13  1  0
 13 14  1  0
 14 15  1  0
 15 16  1  0
 16 17  2  0
 16 18  1  0
 18 19  1  0
 19 20  2  0
 20 21  1  0
 21 22  2  0
 22 23  1  0
 15 11  1  0
 23 19  1  0
  1 24  1  0
  1 25  1  0
  1 26  1  0
  2 27  1  0
  3 28  1  0
  3 29  1  0
  3 30  1  0
  5 31  1  0
  5 32  1  0
  5 33  1  0
  6 34  1  0
  6 35  1  0
  9 36  1  0
 10 37  1  0
 10 38  1  0
 11 39  1  0
 12 40  1  0
 12 41  1  0
 13 42  1  0
 13 43  1  0
 14 44  1  0
 14 45  1  0
 18 46  1  0
 18 47  1  0
 21 48  1  0
 22 49  1  0
 23 50  1  0
M  END
>  <Energy>  (739) 
131.51465138875264

>  <compound_id>  (739) 
18083

>  <target_id>  (739) 
1

>  <reference_id>  (739) 
99

>  <inspiration_ids>  (739) 
[99, 64]

>  <energy_score>  (739) 
34.49858701007133

>  <distance_score>  (739) 
14.379527539896023

>  <path>  (739) 
/opt/xchem-fragalysis-2/maxwin/BulkDock/SCRATCH/511025/C18083-P99/C18083-P99.minimised.mol

>  <scratch_subdir>  (739) 
/opt/xchem-fragalysis-2/maxwin/BulkDock/SCRATCH/511025/C18083-P99

>  <fragmenstein_runtime>  (739) 
58.41573190689087

>  <fragmenstein_outcome>  (739) 
too moved

>  <fragmenstein_mode>  (739) 
expansion

>  <fragmenstein_error>  (739) 


$$$$
C18083-P64
     RDKit          3D

 50 51  0  0  0  0  0  0  0  0999 V2000
   -8.6175  -22.0386   13.5515 C   0  0  0  0  0  0  0  0  0  0  0  0
   -8.4159  -21.2889   14.8742 C   0  0  0  0  0  0  0  0  0  0  0  0
   -9.0024  -22.1738   16.0333 C   0  0  0  0  0  0  0  0  0  0  0  0
   -8.9830  -19.9037   14.7689 N   0  0  0  0  0  0  0  0  0  0  0  0
   -9.1010  -19.3778   16.1295 C   0  0  0  0  0  0  0  0  0  0  0  0
   -8.3665  -18.9519   13.6129 C   0  0  0  0  0  0  0  0  0  0  0  0
   -9.0054  -17.4374   13.5474 C   0  0  0  0  0  0  0  0  0  0  0  0
  -10.1419  -17.4163   13.1151 O   0  0  0  0  0  0  0  0  0  0  0  0
   -8.1179  -16.2706   14.1474 N   0  0  0  0  0  0  0  0  0  0  0  0
   -8.5439  -14.4817   14.5272 C   0  0  0  0  0  0  0  0  0  0  0  0
   -9.4284  -12.7963   13.8392 C   0  0  0  0  0  0  0  0  0  0  0  0
   -9.6915  -13.5065   12.6828 C   0  0  0  0  0  0  0  0  0  0  0  0
   -8.1246  -12.9157   13.1909 C   0  0  0  0  0  0  0  0  0  0  0  0
   -8.0864  -12.2488   12.0772 C   0  0  0  0  0  0  0  0  0  0  0  0
   -9.1815  -11.3551   12.5608 N   0  0  0  0  0  0  0  0  0  0  0  0
   -8.6511   -9.9393   12.7544 C   0  0  0  0  0  0  0  0  0  0  0  0
   -8.1747   -9.4066   13.7397 O   0  0  0  0  0  0  0  0  0  0  0  0
   -8.5883   -8.8804   11.1369 C   0  0  0  0  0  0  0  0  0  0  0  0
   -7.3378   -8.1680    9.7067 C   0  0  0  0  0  0  0  0  0  0  0  0
   -6.4797   -7.1151    9.8401 N   0  0  0  0  0  0  0  0  0  0  0  0
   -7.0430   -5.6003    9.1381 C   0  0  0  0  0  0  0  0  0  0  0  0
   -7.7200   -5.8550    7.8303 C   0  0  0  0  0  0  0  0  0  0  0  0
   -7.7317   -7.6851    8.2962 N   0  0  0  0  0  0  0  0  0  0  0  0
   -8.0694  -21.5663   12.7304 H   0  0  0  0  0  0  0  0  0  0  0  0
   -8.2457  -23.0666   13.6258 H   0  0  0  0  0  0  0  0  0  0  0  0
   -9.6775  -22.0843   13.2783 H   0  0  0  0  0  0  0  0  0  0  0  0
   -7.3358  -21.2036   15.0524 H   0  0  0  0  0  0  0  0  0  0  0  0
  -10.0968  -22.1903   15.9881 H   0  0  0  0  0  0  0  0  0  0  0  0
   -8.6478  -23.2061   15.9352 H   0  0  0  0  0  0  0  0  0  0  0  0
   -8.6958  -21.8335   17.0256 H   0  0  0  0  0  0  0  0  0  0  0  0
   -8.8502  -18.3326   16.1593 H   0  0  0  0  0  0  0  0  0  0  0  0
  -10.1153  -19.5256   16.5106 H   0  0  0  0  0  0  0  0  0  0  0  0
   -8.3852  -19.8126   16.8353 H   0  0  0  0  0  0  0  0  0  0  0  0
   -8.6800  -19.4123   12.6675 H   0  0  0  0  0  0  0  0  0  0  0  0
   -7.2763  -18.9463   13.5830 H   0  0  0  0  0  0  0  0  0  0  0  0
   -7.2134  -16.6085   14.3289 H   0  0  0  0  0  0  0  0  0  0  0  0
   -7.7092  -14.4531   15.1979 H   0  0  0  0  0  0  0  0  0  0  0  0
   -9.5427  -14.7258   14.6978 H   0  0  0  0  0  0  0  0  0  0  0  0
   -9.9351  -12.3650   14.6918 H   0  0  0  0  0  0  0  0  0  0  0  0
  -10.2573  -13.0189   11.8754 H   0  0  0  0  0  0  0  0  0  0  0  0
  -10.2501  -14.4035   12.9734 H   0  0  0  0  0  0  0  0  0  0  0  0
   -7.8666  -11.9808   13.8046 H   0  0  0  0  0  0  0  0  0  0  0  0
   -7.1752  -13.3640   13.4078 H   0  0  0  0  0  0  0  0  0  0  0  0
   -8.3965  -12.6849   11.1355 H   0  0  0  0  0  0  0  0  0  0  0  0
   -7.0157  -12.0794   11.9866 H   0  0  0  0  0  0  0  0  0  0  0  0
   -7.9263   -8.3960   11.8545 H   0  0  0  0  0  0  0  0  0  0  0  0
   -9.5985   -8.9977   10.7809 H   0  0  0  0  0  0  0  0  0  0  0  0
   -7.1842   -4.8282    9.8402 H   0  0  0  0  0  0  0  0  0  0  0  0
   -8.5245   -5.4988    7.1862 H   0  0  0  0  0  0  0  0  0  0  0  0
   -8.6189   -8.1031    8.0964 H   0  0  0  0  0  0  0  0  0  0  0  0
  1  2  1  0
  2  3  1  0
  2  4  1  0
  4  5  1  0
  4  6  1  0
  6  7  1  0
  7  8  2  0
  7  9  1  0
  9 10  1  0
 10 11  1  0
 11 12  1  0
 12 13  1  0
 13 14  1  0
 14 15  1  0
 15 16  1  0
 16 17  2  0
 16 18  1  0
 18 19  1  0
 19 20  2  0
 20 21  1  0
 21 22  2  0
 22 23  1  0
 15 11  1  0
 23 19  1  0
  1 24  1  0
  1 25  1  0
  1 26  1  0
  2 27  1  0
  3 28  1  0
  3 29  1  0
  3 30  1  0
  5 31  1  0
  5 32  1  0
  5 33  1  0
  6 34  1  0
  6 35  1  0
  9 36  1  0
 10 37  1  0
 10 38  1  0
 11 39  1  0
 12 40  1  0
 12 41  1  0
 13 42  1  0
 13 43  1  0
 14 44  1  0
 14 45  1  0
 18 46  1  0
 18 47  1  0
 21 48  1  0
 22 49  1  0
 23 50  1  0
M  END
>  <Energy>  (740) 
1012.1107965432222

>  <compound_id>  (740) 
18083

>  <target_id>  (740) 
1

>  <reference_id>  (740) 
64

>  <inspiration_ids>  (740) 
[99, 64]

>  <energy_score>  (740) 
915.0947321645459

>  <distance_score>  (740) 
12.310700448501088

>  <path>  (740) 
/opt/xchem-fragalysis-2/maxwin/BulkDock/SCRATCH/511025/C18083-P64/C18083-P64.minimised.mol

>  <scratch_subdir>  (740) 
/opt/xchem-fragalysis-2/maxwin/BulkDock/SCRATCH/511025/C18083-P64

>  <fragmenstein_runtime>  (740) 
52.249391078948975

>  <fragmenstein_outcome>  (740) 
too moved

>  <fragmenstein_mode>  (740) 
expansion

>  <fragmenstein_error>  (740) 


$$$$
C18084-P99
     RDKit          3D

 52 53  0  0  0  0  0  0  0  0999 V2000
   -7.1496   -2.8213    4.7344 C   0  0  0  0  0  0  0  0  0  0  0  0
   -7.9333   -2.0830    5.8186 C   0  0  0  0  0  0  0  0  0  0  0  0
   -8.5857   -2.9043    6.9987 C   0  0  0  0  0  0  0  0  0  0  0  0
   -9.4143   -1.8454    7.7701 C   0  0  0  0  0  0  0  0  0  0  0  0
   -9.5007   -3.9578    6.3764 C   0  0  0  0  0  0  0  0  0  0  0  0
   -7.4885   -3.4963    7.9860 C   0  0  0  0  0  0  0  0  0  0  0  0
   -6.5098   -4.0538    7.1456 O   0  0  0  0  0  0  0  0  0  0  0  0
   -8.0300   -4.5421    9.4342 C   0  0  0  0  0  0  0  0  0  0  0  0
   -9.1903   -4.8807    9.2768 O   0  0  0  0  0  0  0  0  0  0  0  0
   -6.8829   -4.9639   10.8792 N   0  0  0  0  0  0  0  0  0  0  0  0
   -5.9012   -6.5631   10.5476 C   0  0  0  0  0  0  0  0  0  0  0  0
   -5.8695   -7.7667   11.6316 C   0  0  0  0  0  0  0  0  0  0  0  0
   -7.3330   -8.1632   12.9950 C   0  0  0  0  0  0  0  0  0  0  0  0
   -7.7830   -9.5799   14.4526 N   0  0  0  0  0  0  0  0  0  0  0  0
   -6.7480  -10.3357   15.9766 C   0  0  0  0  0  0  0  0  0  0  0  0
   -5.6061  -10.1626   16.3005 O   0  0  0  0  0  0  0  0  0  0  0  0
   -7.6204  -11.8169   17.2332 C   0  0  0  0  0  0  0  0  0  0  0  0
   -7.9816  -13.3712   18.4935 C   0  0  0  0  0  0  0  0  0  0  0  0
   -8.6224  -15.3209   18.8283 C   0  0  0  0  0  0  0  0  0  0  0  0
   -8.3384  -16.0426   20.1972 N   0  0  0  0  0  0  0  0  0  0  0  0
   -6.8477  -17.0981   20.1908 C   0  0  0  0  0  0  0  0  0  0  0  0
   -6.8541  -17.6468   18.8523 C   0  0  0  0  0  0  0  0  0  0  0  0
   -8.0106  -16.6618   17.9389 N   0  0  0  0  0  0  0  0  0  0  0  0
   -7.2383   -5.9408   12.6111 C   0  0  0  0  0  0  0  0  0  0  0  0
   -7.6368   -3.7365    4.3981 H   0  0  0  0  0  0  0  0  0  0  0  0
   -6.1323   -3.0624    5.0523 H   0  0  0  0  0  0  0  0  0  0  0  0
   -7.0442   -2.1689    3.8599 H   0  0  0  0  0  0  0  0  0  0  0  0
   -7.2752   -1.3083    6.2347 H   0  0  0  0  0  0  0  0  0  0  0  0
   -8.7399   -1.5399    5.3046 H   0  0  0  0  0  0  0  0  0  0  0  0
   -8.8517   -0.9114    7.8928 H   0  0  0  0  0  0  0  0  0  0  0  0
   -9.6512   -2.1722    8.7773 H   0  0  0  0  0  0  0  0  0  0  0  0
  -10.3451   -1.5958    7.2491 H   0  0  0  0  0  0  0  0  0  0  0  0
   -9.1524   -4.9719    6.5830 H   0  0  0  0  0  0  0  0  0  0  0  0
  -10.5237   -3.8324    6.7339 H   0  0  0  0  0  0  0  0  0  0  0  0
   -9.5908   -3.8618    5.2898 H   0  0  0  0  0  0  0  0  0  0  0  0
   -7.1353   -2.5066    8.3450 H   0  0  0  0  0  0  0  0  0  0  0  0
   -5.6952   -3.5415    7.2822 H   0  0  0  0  0  0  0  0  0  0  0  0
   -6.4445   -6.9990    9.7059 H   0  0  0  0  0  0  0  0  0  0  0  0
   -4.8805   -6.2325   10.4371 H   0  0  0  0  0  0  0  0  0  0  0  0
   -5.4960   -8.5560   10.9652 H   0  0  0  0  0  0  0  0  0  0  0  0
   -4.9744   -7.6892   12.2226 H   0  0  0  0  0  0  0  0  0  0  0  0
   -6.4365   -8.8495   13.1844 H   0  0  0  0  0  0  0  0  0  0  0  0
   -8.7141   -9.9794   14.3920 H   0  0  0  0  0  0  0  0  0  0  0  0
   -8.4024  -12.1336   16.5742 H   0  0  0  0  0  0  0  0  0  0  0  0
   -7.3467  -11.2808   18.1389 H   0  0  0  0  0  0  0  0  0  0  0  0
   -8.9492  -12.9534   18.7968 H   0  0  0  0  0  0  0  0  0  0  0  0
   -7.7310  -13.7459   17.5048 H   0  0  0  0  0  0  0  0  0  0  0  0
   -6.5576  -17.5586   21.1270 H   0  0  0  0  0  0  0  0  0  0  0  0
   -6.4787  -18.4883   18.3014 H   0  0  0  0  0  0  0  0  0  0  0  0
   -7.8337  -16.5878   16.9528 H   0  0  0  0  0  0  0  0  0  0  0  0
   -6.9986   -5.1406   13.3550 H   0  0  0  0  0  0  0  0  0  0  0  0
   -8.2063   -5.2969   12.8137 H   0  0  0  0  0  0  0  0  0  0  0  0
  1  2  1  0
  2  3  1  0
  3  4  1  0
  3  5  1  0
  3  6  1  0
  6  7  1  0
  6  8  1  0
  8  9  2  0
  8 10  1  0
 10 11  1  0
 11 12  1  0
 12 13  1  0
 13 14  1  0
 14 15  1  0
 15 16  2  0
 15 17  1  0
 17 18  1  0
 18 19  1  0
 19 20  2  0
 20 21  1  0
 21 22  2  0
 22 23  1  0
 13 24  1  0
 24 10  1  0
 23 19  1  0
  1 25  1  0
  1 26  1  0
  1 27  1  0
  2 28  1  0
  2 29  1  0
  4 30  1  0
  4 31  1  0
  4 32  1  0
  5 33  1  0
  5 34  1  0
  5 35  1  0
  6 36  1  0
  7 37  1  0
 11 38  1  0
 11 39  1  0
 12 40  1  0
 12 41  1  0
 13 42  1  0
 14 43  1  0
 17 44  1  0
 17 45  1  0
 18 46  1  0
 18 47  1  0
 21 48  1  0
 22 49  1  0
 23 50  1  0
 24 51  1  0
 24 52  1  0
M  END
>  <Energy>  (741) 
1464.6617567516246

>  <compound_id>  (741) 
18084

>  <target_id>  (741) 
1

>  <reference_id>  (741) 
99

>  <inspiration_ids>  (741) 
[99, 64]

>  <energy_score>  (741) 
1375.7796264931992

>  <distance_score>  (741) 
8.66855116912724

>  <path>  (741) 
/opt/xchem-fragalysis-2/maxwin/BulkDock/SCRATCH/511025/C18084-P99/C18084-P99.minimised.mol

>  <scratch_subdir>  (741) 
/opt/xchem-fragalysis-2/maxwin/BulkDock/SCRATCH/511025/C18084-P99

>  <fragmenstein_runtime>  (741) 
43.40759825706482

>  <fragmenstein_outcome>  (741) 
too moved

>  <fragmenstein_mode>  (741) 
expansion

>  <fragmenstein_error>  (741) 


$$$$
C18084-P64
     RDKit          3D

 52 53  0  0  0  0  0  0  0  0999 V2000
   -8.7048   -3.2453   17.9497 C   0  0  0  0  0  0  0  0  0  0  0  0
   -9.1510   -4.2496   16.9063 C   0  0  0  0  0  0  0  0  0  0  0  0
   -8.0162   -4.8944   16.0792 C   0  0  0  0  0  0  0  0  0  0  0  0
   -6.9987   -3.7763   15.6536 C   0  0  0  0  0  0  0  0  0  0  0  0
   -7.1613   -5.7898   17.0016 C   0  0  0  0  0  0  0  0  0  0  0  0
   -8.6507   -5.5378   14.7958 C   0  0  0  0  0  0  0  0  0  0  0  0
   -9.3418   -4.3413   14.2126 O   0  0  0  0  0  0  0  0  0  0  0  0
   -9.8264   -6.6951   14.3771 C   0  0  0  0  0  0  0  0  0  0  0  0
  -10.7717   -6.1442   13.8571 O   0  0  0  0  0  0  0  0  0  0  0  0
   -9.5988   -8.4552   14.5783 N   0  0  0  0  0  0  0  0  0  0  0  0
   -8.9161   -9.4751   13.6615 C   0  0  0  0  0  0  0  0  0  0  0  0
   -9.3788  -11.1398   14.3300 C   0  0  0  0  0  0  0  0  0  0  0  0
  -10.9927  -11.1570   15.4422 C   0  0  0  0  0  0  0  0  0  0  0  0
  -10.6199  -12.0408   17.1988 N   0  0  0  0  0  0  0  0  0  0  0  0
   -9.0506  -12.5829   17.9604 C   0  0  0  0  0  0  0  0  0  0  0  0
   -7.9492  -12.3747   17.4926 O   0  0  0  0  0  0  0  0  0  0  0  0
   -8.8932  -13.6614   19.4325 C   0  0  0  0  0  0  0  0  0  0  0  0
   -8.7360  -15.5859   19.4940 C   0  0  0  0  0  0  0  0  0  0  0  0
   -7.3777  -16.6002   20.5586 C   0  0  0  0  0  0  0  0  0  0  0  0
   -6.4208  -17.3081   19.8600 N   0  0  0  0  0  0  0  0  0  0  0  0
   -6.0214  -18.4601   20.5040 C   0  0  0  0  0  0  0  0  0  0  0  0
   -6.7179  -18.6158   21.6561 C   0  0  0  0  0  0  0  0  0  0  0  0
   -7.5513  -17.5142   21.7106 N   0  0  0  0  0  0  0  0  0  0  0  0
  -10.5308   -9.5726   14.2708 C   0  0  0  0  0  0  0  0  0  0  0  0
   -7.9636   -3.6664   18.6352 H   0  0  0  0  0  0  0  0  0  0  0  0
   -9.5657   -2.9345   18.5522 H   0  0  0  0  0  0  0  0  0  0  0  0
   -8.2895   -2.3378   17.5020 H   0  0  0  0  0  0  0  0  0  0  0  0
   -9.7385   -5.0349   17.3969 H   0  0  0  0  0  0  0  0  0  0  0  0
   -9.8495   -3.7065   16.2775 H   0  0  0  0  0  0  0  0  0  0  0  0
   -6.2123   -4.1624   15.0023 H   0  0  0  0  0  0  0  0  0  0  0  0
   -6.4840   -3.3354   16.5159 H   0  0  0  0  0  0  0  0  0  0  0  0
   -7.4642   -2.9507   15.1322 H   0  0  0  0  0  0  0  0  0  0  0  0
   -6.1872   -5.3497   17.2459 H   0  0  0  0  0  0  0  0  0  0  0  0
   -6.9580   -6.7594   16.5567 H   0  0  0  0  0  0  0  0  0  0  0  0
   -7.6253   -5.9407   17.9814 H   0  0  0  0  0  0  0  0  0  0  0  0
   -8.0179   -5.4108   13.9484 H   0  0  0  0  0  0  0  0  0  0  0  0
   -9.7990   -4.6534   13.4062 H   0  0  0  0  0  0  0  0  0  0  0  0
   -7.8482   -9.3885   13.8738 H   0  0  0  0  0  0  0  0  0  0  0  0
   -9.0197   -9.4176   12.5703 H   0  0  0  0  0  0  0  0  0  0  0  0
   -9.4545  -11.8220   13.4644 H   0  0  0  0  0  0  0  0  0  0  0  0
   -8.5887  -11.5612   14.9029 H   0  0  0  0  0  0  0  0  0  0  0  0
  -11.9735  -10.6912   15.6087 H   0  0  0  0  0  0  0  0  0  0  0  0
  -11.3770  -12.2561   17.8122 H   0  0  0  0  0  0  0  0  0  0  0  0
   -9.3639  -13.3124   20.3095 H   0  0  0  0  0  0  0  0  0  0  0  0
   -7.8471  -13.4052   19.5937 H   0  0  0  0  0  0  0  0  0  0  0  0
   -9.7299  -15.9781   19.5250 H   0  0  0  0  0  0  0  0  0  0  0  0
   -8.4367  -15.8616   18.4582 H   0  0  0  0  0  0  0  0  0  0  0  0
   -5.2521  -19.0953   20.0877 H   0  0  0  0  0  0  0  0  0  0  0  0
   -6.6660  -19.3378   22.4559 H   0  0  0  0  0  0  0  0  0  0  0  0
   -7.6396  -17.0883   22.6042 H   0  0  0  0  0  0  0  0  0  0  0  0
  -10.6285   -9.7664   13.1698 H   0  0  0  0  0  0  0  0  0  0  0  0
  -11.5389   -9.0761   14.1148 H   0  0  0  0  0  0  0  0  0  0  0  0
  1  2  1  0
  2  3  1  0
  3  4  1  0
  3  5  1  0
  3  6  1  0
  6  7  1  0
  6  8  1  0
  8  9  2  0
  8 10  1  0
 10 11  1  0
 11 12  1  0
 12 13  1  0
 13 14  1  0
 14 15  1  0
 15 16  2  0
 15 17  1  0
 17 18  1  0
 18 19  1  0
 19 20  2  0
 20 21  1  0
 21 22  2  0
 22 23  1  0
 13 24  1  0
 24 10  1  0
 23 19  1  0
  1 25  1  0
  1 26  1  0
  1 27  1  0
  2 28  1  0
  2 29  1  0
  4 30  1  0
  4 31  1  0
  4 32  1  0
  5 33  1  0
  5 34  1  0
  5 35  1  0
  6 36  1  0
  7 37  1  0
 11 38  1  0
 11 39  1  0
 12 40  1  0
 12 41  1  0
 13 42  1  0
 14 43  1  0
 17 44  1  0
 17 45  1  0
 18 46  1  0
 18 47  1  0
 21 48  1  0
 22 49  1  0
 23 50  1  0
 24 51  1  0
 24 52  1  0
M  END
>  <Energy>  (742) 
792.51934203322776

>  <compound_id>  (742) 
18084

>  <target_id>  (742) 
1

>  <reference_id>  (742) 
64

>  <inspiration_ids>  (742) 
[99, 64]

>  <energy_score>  (742) 
703.6372117747667

>  <distance_score>  (742) 
10.913233464927231

>  <path>  (742) 
/opt/xchem-fragalysis-2/maxwin/BulkDock/SCRATCH/511025/C18084-P64/C18084-P64.minimised.mol

>  <scratch_subdir>  (742) 
/opt/xchem-fragalysis-2/maxwin/BulkDock/SCRATCH/511025/C18084-P64

>  <fragmenstein_runtime>  (742) 
35.51447129249573

>  <fragmenstein_outcome>  (742) 
too moved

>  <fragmenstein_mode>  (742) 
expansion

>  <fragmenstein_error>  (742) 


$$$$
C18085-P99
     RDKit          3D

 47 48  0  0  0  0  0  0  0  0999 V2000
   -8.3157  -10.3637   12.9267 C   0  0  0  0  0  0  0  0  0  0  0  0
   -8.3477  -10.7814   14.1761 N   0  0  0  0  0  0  0  0  0  0  0  0
   -8.8526  -10.3519   12.2624 C   0  0  0  0  0  0  0  0  0  0  0  0
   -7.9333  -10.1064   10.5528 C   0  0  0  0  0  0  0  0  0  0  0  0
   -8.0958   -8.9101    9.2942 N   0  0  0  0  0  0  0  0  0  0  0  0
   -7.2965   -7.4991    9.0330 C   0  0  0  0  0  0  0  0  0  0  0  0
   -6.3725   -7.1222    9.6779 O   0  0  0  0  0  0  0  0  0  0  0  0
   -7.8650   -6.0104    7.6468 C   0  0  0  0  0  0  0  0  0  0  0  0
   -7.5443   -4.5157    7.8797 N   0  0  0  0  0  0  0  0  0  0  0  0
   -8.7583   -3.6798    7.9142 C   0  0  0  0  0  0  0  0  0  0  0  0
   -8.3252   -2.2434    7.6351 C   0  0  0  0  0  0  0  0  0  0  0  0
   -7.0144   -2.3803    6.8992 C   0  0  0  0  0  0  0  0  0  0  0  0
   -6.8789   -3.8793    6.6933 C   0  0  0  0  0  0  0  0  0  0  0  0
   -8.9183  -12.2276   15.0032 C   0  0  0  0  0  0  0  0  0  0  0  0
   -9.5212  -13.1499   14.6148 O   0  0  0  0  0  0  0  0  0  0  0  0
   -8.3092  -12.4671   16.9968 C   0  0  0  0  0  0  0  0  0  0  0  0
   -8.2836  -13.6211   18.6277 C   0  0  0  0  0  0  0  0  0  0  0  0
   -8.9271  -15.5252   18.7280 C   0  0  0  0  0  0  0  0  0  0  0  0
   -9.1944  -16.3397   17.6520 N   0  0  0  0  0  0  0  0  0  0  0  0
  -10.7768  -17.4514   17.7083 C   0  0  0  0  0  0  0  0  0  0  0  0
  -11.0937  -17.2439   18.9350 C   0  0  0  0  0  0  0  0  0  0  0  0
  -10.0555  -15.9992   19.4249 N   0  0  0  0  0  0  0  0  0  0  0  0
   -7.1756   -9.8598   12.8050 H   0  0  0  0  0  0  0  0  0  0  0  0
   -8.2772   -9.2547   13.4957 H   0  0  0  0  0  0  0  0  0  0  0  0
   -7.4942  -11.3109   12.7730 H   0  0  0  0  0  0  0  0  0  0  0  0
   -9.8401   -9.7105   12.2134 H   0  0  0  0  0  0  0  0  0  0  0  0
   -9.4364  -11.3754   11.9387 H   0  0  0  0  0  0  0  0  0  0  0  0
   -6.8636  -10.0472   10.7844 H   0  0  0  0  0  0  0  0  0  0  0  0
   -8.1423  -11.0389   10.0159 H   0  0  0  0  0  0  0  0  0  0  0  0
   -8.8879   -8.9539    8.6675 H   0  0  0  0  0  0  0  0  0  0  0  0
   -7.3558   -6.0552    6.6535 H   0  0  0  0  0  0  0  0  0  0  0  0
   -8.9576   -6.0040    7.4267 H   0  0  0  0  0  0  0  0  0  0  0  0
   -9.2231   -3.7802    8.8788 H   0  0  0  0  0  0  0  0  0  0  0  0
   -9.4667   -3.9609    7.1258 H   0  0  0  0  0  0  0  0  0  0  0  0
   -8.1858   -1.6621    8.5473 H   0  0  0  0  0  0  0  0  0  0  0  0
   -9.0743   -1.7235    7.0281 H   0  0  0  0  0  0  0  0  0  0  0  0
   -6.1923   -1.9901    7.5098 H   0  0  0  0  0  0  0  0  0  0  0  0
   -7.0150   -1.8366    5.9494 H   0  0  0  0  0  0  0  0  0  0  0  0
   -7.3810   -4.1535    5.7556 H   0  0  0  0  0  0  0  0  0  0  0  0
   -5.8248   -4.1067    6.5957 H   0  0  0  0  0  0  0  0  0  0  0  0
   -7.5316  -11.7671   17.3349 H   0  0  0  0  0  0  0  0  0  0  0  0
   -9.3165  -12.2402   17.4573 H   0  0  0  0  0  0  0  0  0  0  0  0
   -9.1174  -13.2091   19.1991 H   0  0  0  0  0  0  0  0  0  0  0  0
   -7.4482  -13.3455   19.2665 H   0  0  0  0  0  0  0  0  0  0  0  0
  -11.2818  -17.8365   16.8106 H   0  0  0  0  0  0  0  0  0  0  0  0
  -11.6213  -17.9498   19.5367 H   0  0  0  0  0  0  0  0  0  0  0  0
  -10.6419  -15.3877   19.8827 H   0  0  0  0  0  0  0  0  0  0  0  0
  1  2  1  0
  2  3  1  0
  3  4  1  0
  4  5  1  0
  5  6  1  0
  6  7  2  0
  6  8  1  0
  8  9  1  0
  9 10  1  0
 10 11  1  0
 11 12  1  0
 12 13  1  0
  2 14  1  0
 14 15  2  0
 14 16  1  0
 16 17  1  0
 17 18  1  0
 18 19  2  0
 19 20  1  0
 20 21  2  0
 21 22  1  0
 13  9  1  0
 22 18  1  0
  1 23  1  0
  1 24  1  0
  1 25  1  0
  3 26  1  0
  3 27  1  0
  4 28  1  0
  4 29  1  0
  5 30  1  0
  8 31  1  0
  8 32  1  0
 10 33  1  0
 10 34  1  0
 11 35  1  0
 11 36  1  0
 12 37  1  0
 12 38  1  0
 13 39  1  0
 13 40  1  0
 16 41  1  0
 16 42  1  0
 17 43  1  0
 17 44  1  0
 20 45  1  0
 21 46  1  0
 22 47  1  0
M  END
>  <Energy>  (743) 
1404.6620494279553

>  <compound_id>  (743) 
18085

>  <target_id>  (743) 
1

>  <reference_id>  (743) 
99

>  <inspiration_ids>  (743) 
[99, 64]

>  <energy_score>  (743) 
1344.328798040488

>  <distance_score>  (743) 
8.764943192258167

>  <path>  (743) 
/opt/xchem-fragalysis-2/maxwin/BulkDock/SCRATCH/511025/C18085-P99/C18085-P99.minimised.mol

>  <scratch_subdir>  (743) 
/opt/xchem-fragalysis-2/maxwin/BulkDock/SCRATCH/511025/C18085-P99

>  <fragmenstein_runtime>  (743) 
45.23257660865784

>  <fragmenstein_outcome>  (743) 
too moved

>  <fragmenstein_mode>  (743) 
expansion

>  <fragmenstein_error>  (743) 


$$$$
C18085-P64
     RDKit          3D

 47 48  0  0  0  0  0  0  0  0999 V2000
  -11.0321  -19.1737   13.1318 C   0  0  0  0  0  0  0  0  0  0  0  0
  -11.8247  -20.1060   13.3352 N   0  0  0  0  0  0  0  0  0  0  0  0
  -10.6450  -18.4126   13.4493 C   0  0  0  0  0  0  0  0  0  0  0  0
  -10.5421  -16.6151   12.7449 C   0  0  0  0  0  0  0  0  0  0  0  0
  -10.2705  -15.0187   13.0038 N   0  0  0  0  0  0  0  0  0  0  0  0
   -9.9139  -13.8657   11.9958 C   0  0  0  0  0  0  0  0  0  0  0  0
   -9.8414  -13.8761   10.7815 O   0  0  0  0  0  0  0  0  0  0  0  0
   -9.4567  -12.4690   12.6048 C   0  0  0  0  0  0  0  0  0  0  0  0
   -8.2318  -11.7885   12.0188 N   0  0  0  0  0  0  0  0  0  0  0  0
   -8.0557  -10.4188   12.5381 C   0  0  0  0  0  0  0  0  0  0  0  0
   -6.9162   -9.9009   11.6757 C   0  0  0  0  0  0  0  0  0  0  0  0
   -7.2849  -10.4055   10.2922 C   0  0  0  0  0  0  0  0  0  0  0  0
   -8.2542  -11.5708   10.5534 C   0  0  0  0  0  0  0  0  0  0  0  0
  -13.4994  -20.2250   14.0588 C   0  0  0  0  0  0  0  0  0  0  0  0
  -14.1581  -19.4269   14.5728 O   0  0  0  0  0  0  0  0  0  0  0  0
  -14.3583  -21.9627   13.8202 C   0  0  0  0  0  0  0  0  0  0  0  0
  -14.4366  -23.4918   14.3373 C   0  0  0  0  0  0  0  0  0  0  0  0
  -14.8147  -24.0313   15.7215 C   0  0  0  0  0  0  0  0  0  0  0  0
  -13.9978  -24.5663   16.6156 N   0  0  0  0  0  0  0  0  0  0  0  0
  -14.7616  -25.0801   17.6317 C   0  0  0  0  0  0  0  0  0  0  0  0
  -16.0874  -24.8701   17.3647 C   0  0  0  0  0  0  0  0  0  0  0  0
  -16.1138  -24.2347   16.1459 N   0  0  0  0  0  0  0  0  0  0  0  0
  -10.4512  -20.0607   13.8291 H   0  0  0  0  0  0  0  0  0  0  0  0
  -10.5493  -19.7496   12.2008 H   0  0  0  0  0  0  0  0  0  0  0  0
  -12.1356  -18.7049   13.5983 H   0  0  0  0  0  0  0  0  0  0  0  0
   -9.5868  -18.4440   12.5668 H   0  0  0  0  0  0  0  0  0  0  0  0
  -10.5412  -18.2439   14.6090 H   0  0  0  0  0  0  0  0  0  0  0  0
   -9.5045  -16.7262   13.0890 H   0  0  0  0  0  0  0  0  0  0  0  0
  -10.3993  -16.6748   11.6611 H   0  0  0  0  0  0  0  0  0  0  0  0
  -10.1568  -14.6849   13.9457 H   0  0  0  0  0  0  0  0  0  0  0  0
  -10.2390  -11.7927   12.3270 H   0  0  0  0  0  0  0  0  0  0  0  0
   -9.3156  -12.5677   13.6823 H   0  0  0  0  0  0  0  0  0  0  0  0
   -7.8081  -10.3959   13.5982 H   0  0  0  0  0  0  0  0  0  0  0  0
   -8.9641   -9.8279   12.3870 H   0  0  0  0  0  0  0  0  0  0  0  0
   -6.7924   -8.8190   11.7168 H   0  0  0  0  0  0  0  0  0  0  0  0
   -5.9676  -10.3514   11.9947 H   0  0  0  0  0  0  0  0  0  0  0  0
   -6.3947  -10.7276    9.7424 H   0  0  0  0  0  0  0  0  0  0  0  0
   -7.7835   -9.6234    9.7106 H   0  0  0  0  0  0  0  0  0  0  0  0
   -9.2539  -11.2922   10.1987 H   0  0  0  0  0  0  0  0  0  0  0  0
   -7.9241  -12.4626   10.0124 H   0  0  0  0  0  0  0  0  0  0  0  0
  -15.4130  -21.6789   13.6678 H   0  0  0  0  0  0  0  0  0  0  0  0
  -13.8851  -22.3260   12.9023 H   0  0  0  0  0  0  0  0  0  0  0  0
  -13.5239  -24.0155   14.0244 H   0  0  0  0  0  0  0  0  0  0  0  0
  -15.1900  -23.9467   13.6707 H   0  0  0  0  0  0  0  0  0  0  0  0
  -14.3121  -25.5686   18.4865 H   0  0  0  0  0  0  0  0  0  0  0  0
  -16.9927  -25.1184   17.8993 H   0  0  0  0  0  0  0  0  0  0  0  0
  -16.9435  -23.9573   15.6399 H   0  0  0  0  0  0  0  0  0  0  0  0
  1  2  1  0
  2  3  1  0
  3  4  1  0
  4  5  1  0
  5  6  1  0
  6  7  2  0
  6  8  1  0
  8  9  1  0
  9 10  1  0
 10 11  1  0
 11 12  1  0
 12 13  1  0
  2 14  1  0
 14 15  2  0
 14 16  1  0
 16 17  1  0
 17 18  1  0
 18 19  2  0
 19 20  1  0
 20 21  2  0
 21 22  1  0
 13  9  1  0
 22 18  1  0
  1 23  1  0
  1 24  1  0
  1 25  1  0
  3 26  1  0
  3 27  1  0
  4 28  1  0
  4 29  1  0
  5 30  1  0
  8 31  1  0
  8 32  1  0
 10 33  1  0
 10 34  1  0
 11 35  1  0
 11 36  1  0
 12 37  1  0
 12 38  1  0
 13 39  1  0
 13 40  1  0
 16 41  1  0
 16 42  1  0
 17 43  1  0
 17 44  1  0
 20 45  1  0
 21 46  1  0
 22 47  1  0
M  END
>  <Energy>  (744) 
1171.1061325731087

>  <compound_id>  (744) 
18085

>  <target_id>  (744) 
1

>  <reference_id>  (744) 
64

>  <inspiration_ids>  (744) 
[99, 64]

>  <energy_score>  (744) 
1110.77288118564

>  <distance_score>  (744) 
12.049492487089912

>  <path>  (744) 
/opt/xchem-fragalysis-2/maxwin/BulkDock/SCRATCH/511025/C18085-P64/C18085-P64.minimised.mol

>  <scratch_subdir>  (744) 
/opt/xchem-fragalysis-2/maxwin/BulkDock/SCRATCH/511025/C18085-P64

>  <fragmenstein_runtime>  (744) 
46.91080284118652

>  <fragmenstein_outcome>  (744) 
too moved

>  <fragmenstein_mode>  (744) 
expansion

>  <fragmenstein_error>  (744) 


$$$$
C46377-P99
     RDKit          3D

 41 42  0  0  0  0  0  0  0  0999 V2000
   -9.2203   -4.3758   21.0115 C   0  0  0  0  0  0  0  0  0  0  0  0
   -7.8207   -4.9593   20.8798 C   0  0  0  0  0  0  0  0  0  0  0  0
   -7.3746   -5.4817   22.2617 C   0  0  0  0  0  0  0  0  0  0  0  0
   -6.6036   -3.6349   20.2434 S   0  0  0  0  0  0  0  0  0  0  0  0
   -5.4565   -4.3450   19.7098 O   0  0  0  0  0  0  0  0  0  0  0  0
   -6.4195   -2.6912   21.3317 O   0  0  0  0  0  0  0  0  0  0  0  0
   -7.3108   -2.6803   18.8882 C   0  0  0  0  0  0  0  0  0  0  0  0
   -7.4726   -3.3667   17.5942 C   0  0  0  0  0  0  0  0  0  0  0  0
   -7.5756   -2.0894   16.7955 C   0  0  0  0  0  0  0  0  0  0  0  0
   -6.3416   -1.2627   16.8025 N   0  0  0  0  0  0  0  0  0  0  0  0
   -6.5341   -0.0288   15.9500 C   0  0  0  0  0  0  0  0  0  0  0  0
   -6.9319    1.0696   16.2456 O   0  0  0  0  0  0  0  0  0  0  0  0
   -6.1521   -0.4486   14.4078 C   0  0  0  0  0  0  0  0  0  0  0  0
   -6.4921    0.1397   12.6021 C   0  0  0  0  0  0  0  0  0  0  0  0
   -7.2191    0.1235   10.9209 C   0  0  0  0  0  0  0  0  0  0  0  0
   -6.6612   -0.1129    9.6437 C   0  0  0  0  0  0  0  0  0  0  0  0
   -7.6453    0.0412    8.7030 N   0  0  0  0  0  0  0  0  0  0  0  0
   -8.7507    0.4763    9.3493 C   0  0  0  0  0  0  0  0  0  0  0  0
   -8.5286    0.5533   10.6362 N   0  0  0  0  0  0  0  0  0  0  0  0
   -6.4897   -1.4658   18.3664 C   0  0  0  0  0  0  0  0  0  0  0  0
   -9.7672   -4.4746   20.0683 H   0  0  0  0  0  0  0  0  0  0  0  0
   -9.1761   -3.3043   21.2380 H   0  0  0  0  0  0  0  0  0  0  0  0
   -9.8118   -4.8119   21.8196 H   0  0  0  0  0  0  0  0  0  0  0  0
   -7.8076   -5.7538   20.1317 H   0  0  0  0  0  0  0  0  0  0  0  0
   -6.2946   -5.6243   22.3178 H   0  0  0  0  0  0  0  0  0  0  0  0
   -7.8896   -6.4050   22.5206 H   0  0  0  0  0  0  0  0  0  0  0  0
   -7.6128   -4.7453   23.0389 H   0  0  0  0  0  0  0  0  0  0  0  0
   -8.2701   -2.3068   19.2692 H   0  0  0  0  0  0  0  0  0  0  0  0
   -6.6073   -3.9689   17.2992 H   0  0  0  0  0  0  0  0  0  0  0  0
   -8.3768   -3.9792   17.5459 H   0  0  0  0  0  0  0  0  0  0  0  0
   -8.4429   -1.4669   17.0671 H   0  0  0  0  0  0  0  0  0  0  0  0
   -7.7274   -2.4072   15.7628 H   0  0  0  0  0  0  0  0  0  0  0  0
   -6.4577   -1.5032   14.4545 H   0  0  0  0  0  0  0  0  0  0  0  0
   -5.1057   -0.3724   14.6647 H   0  0  0  0  0  0  0  0  0  0  0  0
   -7.3064   -0.5670   12.6657 H   0  0  0  0  0  0  0  0  0  0  0  0
   -5.6241   -0.3340   12.1506 H   0  0  0  0  0  0  0  0  0  0  0  0
   -5.6637   -0.3672    9.3089 H   0  0  0  0  0  0  0  0  0  0  0  0
   -7.5546   -0.0999    7.7070 H   0  0  0  0  0  0  0  0  0  0  0  0
   -9.6784    0.7140    8.8477 H   0  0  0  0  0  0  0  0  0  0  0  0
   -5.4534   -1.5163   18.7232 H   0  0  0  0  0  0  0  0  0  0  0  0
   -6.9038   -0.5277   18.7623 H   0  0  0  0  0  0  0  0  0  0  0  0
  1  2  1  0
  2  3  1  0
  2  4  1  0
  4  5  2  0
  4  6  2  0
  4  7  1  0
  7  8  1  0
  8  9  1  0
  9 10  1  0
 10 11  1  0
 11 12  2  0
 11 13  1  0
 13 14  1  0
 14 15  1  0
 15 16  2  0
 16 17  1  0
 17 18  1  0
 18 19  2  0
 10 20  1  0
 20  7  1  0
 19 15  1  0
  1 21  1  0
  1 22  1  0
  1 23  1  0
  2 24  1  0
  3 25  1  0
  3 26  1  0
  3 27  1  0
  7 28  1  0
  8 29  1  0
  8 30  1  0
  9 31  1  0
  9 32  1  0
 13 33  1  0
 13 34  1  0
 14 35  1  0
 14 36  1  0
 16 37  1  0
 17 38  1  0
 18 39  1  0
 20 40  1  0
 20 41  1  0
M  END
>  <Energy>  (745) 
227.63892497625892

>  <compound_id>  (745) 
46377

>  <target_id>  (745) 
1

>  <reference_id>  (745) 
99

>  <inspiration_ids>  (745) 
[99, 64]

>  <energy_score>  (745) 
219.72014242597902

>  <distance_score>  (745) 
13.96551242020808

>  <path>  (745) 
/opt/xchem-fragalysis-2/maxwin/BulkDock/SCRATCH/511025/C46377-P99/C46377-P99.minimised.mol

>  <scratch_subdir>  (745) 
/opt/xchem-fragalysis-2/maxwin/BulkDock/SCRATCH/511025/C46377-P99

>  <fragmenstein_runtime>  (745) 
26.47739815711975

>  <fragmenstein_outcome>  (745) 
too moved

>  <fragmenstein_mode>  (745) 
expansion

>  <fragmenstein_error>  (745) 


$$$$
C46377-P64
     RDKit          3D

 41 42  0  0  0  0  0  0  0  0999 V2000
   -8.7877  -20.2992   17.2633 C   0  0  0  0  0  0  0  0  0  0  0  0
   -9.9457  -21.0100   16.5853 C   0  0  0  0  0  0  0  0  0  0  0  0
  -11.2854  -20.5295   17.1261 C   0  0  0  0  0  0  0  0  0  0  0  0
   -9.8380  -20.9977   14.7333 S   0  0  0  0  0  0  0  0  0  0  0  0
  -10.9732  -21.7936   14.2913 O   0  0  0  0  0  0  0  0  0  0  0  0
   -8.5047  -21.4573   14.3820 O   0  0  0  0  0  0  0  0  0  0  0  0
  -10.0490  -19.3400   13.9645 C   0  0  0  0  0  0  0  0  0  0  0  0
   -8.8081  -18.6645   13.4680 C   0  0  0  0  0  0  0  0  0  0  0  0
   -9.0302  -18.7788   11.9706 C   0  0  0  0  0  0  0  0  0  0  0  0
  -10.4503  -18.4689   11.5396 N   0  0  0  0  0  0  0  0  0  0  0  0
  -10.6717  -17.0407   11.5201 C   0  0  0  0  0  0  0  0  0  0  0  0
  -11.0746  -16.3016   12.3799 O   0  0  0  0  0  0  0  0  0  0  0  0
  -10.3393  -16.5000   10.0998 C   0  0  0  0  0  0  0  0  0  0  0  0
  -10.4516  -14.9590    9.9246 C   0  0  0  0  0  0  0  0  0  0  0  0
   -9.5659  -14.4442    8.8341 C   0  0  0  0  0  0  0  0  0  0  0  0
   -9.8703  -14.1468    7.5237 C   0  0  0  0  0  0  0  0  0  0  0  0
   -8.7080  -13.6780    6.9763 N   0  0  0  0  0  0  0  0  0  0  0  0
   -7.7385  -13.7776    7.9302 C   0  0  0  0  0  0  0  0  0  0  0  0
   -8.2248  -14.2303    9.0625 N   0  0  0  0  0  0  0  0  0  0  0  0
  -10.7586  -19.5065   12.6068 C   0  0  0  0  0  0  0  0  0  0  0  0
   -8.7775  -19.2354   17.0052 H   0  0  0  0  0  0  0  0  0  0  0  0
   -8.8492  -20.3888   18.3527 H   0  0  0  0  0  0  0  0  0  0  0  0
   -7.8291  -20.7216   16.9450 H   0  0  0  0  0  0  0  0  0  0  0  0
   -9.8599  -22.0782   16.8276 H   0  0  0  0  0  0  0  0  0  0  0  0
  -11.4425  -19.4774   16.8742 H   0  0  0  0  0  0  0  0  0  0  0  0
  -12.1121  -21.1002   16.6917 H   0  0  0  0  0  0  0  0  0  0  0  0
  -11.3355  -20.6353   18.2144 H   0  0  0  0  0  0  0  0  0  0  0  0
  -10.6479  -18.7619   14.6589 H   0  0  0  0  0  0  0  0  0  0  0  0
   -7.8657  -19.1150   13.7868 H   0  0  0  0  0  0  0  0  0  0  0  0
   -8.7793  -17.6124   13.7372 H   0  0  0  0  0  0  0  0  0  0  0  0
   -8.3629  -18.0662   11.4699 H   0  0  0  0  0  0  0  0  0  0  0  0
   -8.7257  -19.7609   11.5702 H   0  0  0  0  0  0  0  0  0  0  0  0
  -11.0161  -16.9887    9.3878 H   0  0  0  0  0  0  0  0  0  0  0  0
   -9.3221  -16.8234    9.8488 H   0  0  0  0  0  0  0  0  0  0  0  0
  -10.2060  -14.4322   10.8524 H   0  0  0  0  0  0  0  0  0  0  0  0
  -11.4962  -14.7044    9.7060 H   0  0  0  0  0  0  0  0  0  0  0  0
  -10.7912  -14.2029    6.9604 H   0  0  0  0  0  0  0  0  0  0  0  0
   -8.5811  -13.3638    6.0251 H   0  0  0  0  0  0  0  0  0  0  0  0
   -6.7088  -13.5011    7.7483 H   0  0  0  0  0  0  0  0  0  0  0  0
  -11.8385  -19.4082   12.7840 H   0  0  0  0  0  0  0  0  0  0  0  0
  -10.6356  -20.5016   12.1499 H   0  0  0  0  0  0  0  0  0  0  0  0
  1  2  1  0
  2  3  1  0
  2  4  1  0
  4  5  2  0
  4  6  2  0
  4  7  1  0
  7  8  1  0
  8  9  1  0
  9 10  1  0
 10 11  1  0
 11 12  2  0
 11 13  1  0
 13 14  1  0
 14 15  1  0
 15 16  2  0
 16 17  1  0
 17 18  1  0
 18 19  2  0
 10 20  1  0
 20  7  1  0
 19 15  1  0
  1 21  1  0
  1 22  1  0
  1 23  1  0
  2 24  1  0
  3 25  1  0
  3 26  1  0
  3 27  1  0
  7 28  1  0
  8 29  1  0
  8 30  1  0
  9 31  1  0
  9 32  1  0
 13 33  1  0
 13 34  1  0
 14 35  1  0
 14 36  1  0
 16 37  1  0
 17 38  1  0
 18 39  1  0
 20 40  1  0
 20 41  1  0
M  END
>  <Energy>  (746) 
41.182690250085138

>  <compound_id>  (746) 
46377

>  <target_id>  (746) 
1

>  <reference_id>  (746) 
64

>  <inspiration_ids>  (746) 
[99, 64]

>  <energy_score>  (746) 
33.26390769980492

>  <distance_score>  (746) 
14.83540341071369

>  <path>  (746) 
/opt/xchem-fragalysis-2/maxwin/BulkDock/SCRATCH/511025/C46377-P64/C46377-P64.minimised.mol

>  <scratch_subdir>  (746) 
/opt/xchem-fragalysis-2/maxwin/BulkDock/SCRATCH/511025/C46377-P64

>  <fragmenstein_runtime>  (746) 
41.984068155288696

>  <fragmenstein_outcome>  (746) 
too moved

>  <fragmenstein_mode>  (746) 
expansion

>  <fragmenstein_error>  (746) 


$$$$
C18087-P99
     RDKit          3D

 42 45  0  0  0  0  0  0  0  0999 V2000
   -8.5230   -9.8961    9.6847 C   0  0  0  0  0  0  0  0  0  0  0  0
   -7.0711   -9.4822    9.5032 C   0  0  0  0  0  0  0  0  0  0  0  0
   -7.0417   -8.2328    8.8886 O   0  0  0  0  0  0  0  0  0  0  0  0
   -6.2027   -9.4269   10.7615 C   0  0  0  0  0  0  0  0  0  0  0  0
   -5.7360  -10.7871   10.9893 N   0  0  0  0  0  0  0  0  0  0  0  0
   -4.7630  -11.3887   10.2281 C   0  0  0  0  0  0  0  0  0  0  0  0
   -5.1389  -12.5912    9.8371 N   0  0  0  0  0  0  0  0  0  0  0  0
   -6.3527  -12.8122   10.4711 C   0  0  0  0  0  0  0  0  0  0  0  0
   -7.3367  -13.8298   10.3781 C   0  0  0  0  0  0  0  0  0  0  0  0
   -7.3094  -14.9316    9.5431 N   0  0  0  0  0  0  0  0  0  0  0  0
   -6.2118  -15.2175    8.6430 C   0  0  0  0  0  0  0  0  0  0  0  0
   -6.4303  -16.6724    8.2162 C   0  0  0  0  0  0  0  0  0  0  0  0
   -7.8537  -17.0227    8.6488 C   0  0  0  0  0  0  0  0  0  0  0  0
   -8.1439  -16.1111    9.8474 C   0  0  0  0  0  0  0  0  0  0  0  0
   -7.8470  -16.7544   11.1915 C   0  0  0  0  0  0  0  0  0  0  0  0
   -8.5235  -16.5585   12.3106 N   0  0  0  0  0  0  0  0  0  0  0  0
   -7.5332  -16.3844   13.2229 C   0  0  0  0  0  0  0  0  0  0  0  0
   -6.3247  -16.8329   12.7489 C   0  0  0  0  0  0  0  0  0  0  0  0
   -6.6004  -17.2576   11.4871 N   0  0  0  0  0  0  0  0  0  0  0  0
   -8.4419  -13.6800   11.1683 N   0  0  0  0  0  0  0  0  0  0  0  0
   -8.5377  -12.6469   12.0190 C   0  0  0  0  0  0  0  0  0  0  0  0
   -7.6950  -11.6152   12.1428 N   0  0  0  0  0  0  0  0  0  0  0  0
   -6.6363  -11.7616   11.3320 C   0  0  0  0  0  0  0  0  0  0  0  0
   -8.6341  -10.9805    9.6056 H   0  0  0  0  0  0  0  0  0  0  0  0
   -9.1737   -9.4729    8.9174 H   0  0  0  0  0  0  0  0  0  0  0  0
   -8.9088   -9.6020   10.6623 H   0  0  0  0  0  0  0  0  0  0  0  0
   -6.6280  -10.1818    8.7824 H   0  0  0  0  0  0  0  0  0  0  0  0
   -6.7103   -8.3969    7.9923 H   0  0  0  0  0  0  0  0  0  0  0  0
   -5.3228   -8.7873   10.6410 H   0  0  0  0  0  0  0  0  0  0  0  0
   -6.7442   -9.0915   11.6507 H   0  0  0  0  0  0  0  0  0  0  0  0
   -3.8588  -10.8796    9.9244 H   0  0  0  0  0  0  0  0  0  0  0  0
   -6.2478  -14.5510    7.7745 H   0  0  0  0  0  0  0  0  0  0  0  0
   -5.2329  -15.1241    9.1254 H   0  0  0  0  0  0  0  0  0  0  0  0
   -5.7048  -17.3248    8.7131 H   0  0  0  0  0  0  0  0  0  0  0  0
   -6.2871  -16.8050    7.1389 H   0  0  0  0  0  0  0  0  0  0  0  0
   -8.5372  -16.7679    7.8285 H   0  0  0  0  0  0  0  0  0  0  0  0
   -7.9747  -18.0895    8.8620 H   0  0  0  0  0  0  0  0  0  0  0  0
   -9.2082  -15.8422    9.8290 H   0  0  0  0  0  0  0  0  0  0  0  0
   -7.7115  -15.9110   14.1700 H   0  0  0  0  0  0  0  0  0  0  0  0
   -5.3226  -16.8435   13.1524 H   0  0  0  0  0  0  0  0  0  0  0  0
   -5.8909  -17.4902   10.8114 H   0  0  0  0  0  0  0  0  0  0  0  0
   -9.4139  -12.6366   12.6585 H   0  0  0  0  0  0  0  0  0  0  0  0
  1  2  1  0
  2  3  1  0
  2  4  1  0
  4  5  1  0
  5  6  1  0
  6  7  2  0
  7  8  1  0
  8  9  2  0
  9 10  1  0
 10 11  1  0
 11 12  1  0
 12 13  1  0
 13 14  1  0
 14 15  1  0
 15 16  2  0
 16 17  1  0
 17 18  2  0
 18 19  1  0
  9 20  1  0
 20 21  2  0
 21 22  1  0
 22 23  2  0
 23  5  1  0
 23  8  1  0
 14 10  1  0
 19 15  1  0
  1 24  1  0
  1 25  1  0
  1 26  1  0
  2 27  1  0
  3 28  1  0
  4 29  1  0
  4 30  1  0
  6 31  1  0
 11 32  1  0
 11 33  1  0
 12 34  1  0
 12 35  1  0
 13 36  1  0
 13 37  1  0
 14 38  1  0
 17 39  1  0
 18 40  1  0
 19 41  1  0
 21 42  1  0
M  END
>  <Energy>  (747) 
76.004839902829687

>  <compound_id>  (747) 
18087

>  <target_id>  (747) 
1

>  <reference_id>  (747) 
99

>  <inspiration_ids>  (747) 
[99, 64]

>  <energy_score>  (747) 
-11.661353065516664

>  <distance_score>  (747) 
12.982332666518149

>  <path>  (747) 
/opt/xchem-fragalysis-2/maxwin/BulkDock/SCRATCH/511025/C18087-P99/C18087-P99.minimised.mol

>  <scratch_subdir>  (747) 
/opt/xchem-fragalysis-2/maxwin/BulkDock/SCRATCH/511025/C18087-P99

>  <fragmenstein_runtime>  (747) 
43.01896667480469

>  <fragmenstein_outcome>  (747) 
too moved

>  <fragmenstein_mode>  (747) 
expansion

>  <fragmenstein_error>  (747) 


$$$$
C18087-P64
     RDKit          3D

 42 45  0  0  0  0  0  0  0  0999 V2000
   -7.7788   -4.6489    8.3811 C   0  0  0  0  0  0  0  0  0  0  0  0
   -7.8702   -5.9660    7.5995 C   0  0  0  0  0  0  0  0  0  0  0  0
   -7.1432   -5.5544    6.4113 O   0  0  0  0  0  0  0  0  0  0  0  0
   -7.5035   -7.8572    8.4865 C   0  0  0  0  0  0  0  0  0  0  0  0
   -7.4314   -9.0241    9.9126 N   0  0  0  0  0  0  0  0  0  0  0  0
   -6.7212   -8.9363   11.1444 C   0  0  0  0  0  0  0  0  0  0  0  0
   -6.9509   -9.8943   12.0937 N   0  0  0  0  0  0  0  0  0  0  0  0
   -7.5261  -11.0706   11.5306 C   0  0  0  0  0  0  0  0  0  0  0  0
   -7.7737  -12.7358   12.0650 C   0  0  0  0  0  0  0  0  0  0  0  0
   -8.2617  -13.6639   13.5058 N   0  0  0  0  0  0  0  0  0  0  0  0
   -9.4925  -14.2171   12.8169 C   0  0  0  0  0  0  0  0  0  0  0  0
   -9.1639  -15.6689   12.4464 C   0  0  0  0  0  0  0  0  0  0  0  0
   -7.9975  -16.1730   13.3177 C   0  0  0  0  0  0  0  0  0  0  0  0
   -7.8882  -15.2675   14.5762 C   0  0  0  0  0  0  0  0  0  0  0  0
   -8.1472  -16.3581   16.3254 C   0  0  0  0  0  0  0  0  0  0  0  0
   -8.1862  -17.6422   16.8397 N   0  0  0  0  0  0  0  0  0  0  0  0
   -9.6548  -18.4796   17.1844 C   0  0  0  0  0  0  0  0  0  0  0  0
  -10.7109  -17.5691   17.7297 C   0  0  0  0  0  0  0  0  0  0  0  0
   -9.3002  -16.2640   17.6182 N   0  0  0  0  0  0  0  0  0  0  0  0
   -7.9466  -13.4137   10.8462 N   0  0  0  0  0  0  0  0  0  0  0  0
   -8.0554  -12.7645    9.6026 C   0  0  0  0  0  0  0  0  0  0  0  0
   -8.0408  -11.4566    9.1300 N   0  0  0  0  0  0  0  0  0  0  0  0
   -7.7282  -10.5802   10.1036 C   0  0  0  0  0  0  0  0  0  0  0  0
   -7.2724   -3.8612    7.8132 H   0  0  0  0  0  0  0  0  0  0  0  0
   -7.2846   -4.8973    9.3103 H   0  0  0  0  0  0  0  0  0  0  0  0
   -8.7715   -4.2477    8.6144 H   0  0  0  0  0  0  0  0  0  0  0  0
   -8.9426   -5.9053    7.2749 H   0  0  0  0  0  0  0  0  0  0  0  0
   -7.7880   -5.4465    5.6852 H   0  0  0  0  0  0  0  0  0  0  0  0
   -8.4898   -8.3186    8.3201 H   0  0  0  0  0  0  0  0  0  0  0  0
   -6.7311   -8.4155    7.9527 H   0  0  0  0  0  0  0  0  0  0  0  0
   -6.0593   -8.0979   11.3143 H   0  0  0  0  0  0  0  0  0  0  0  0
   -9.9265  -13.6368   11.9941 H   0  0  0  0  0  0  0  0  0  0  0  0
  -10.3060  -14.2102   13.5484 H   0  0  0  0  0  0  0  0  0  0  0  0
   -8.8968  -15.7660   11.3890 H   0  0  0  0  0  0  0  0  0  0  0  0
  -10.0541  -16.2912   12.5951 H   0  0  0  0  0  0  0  0  0  0  0  0
   -7.0643  -16.1020   12.7483 H   0  0  0  0  0  0  0  0  0  0  0  0
   -8.1634  -17.2017   13.5471 H   0  0  0  0  0  0  0  0  0  0  0  0
   -8.8544  -14.8713   14.8037 H   0  0  0  0  0  0  0  0  0  0  0  0
  -10.0701  -18.9130   16.2572 H   0  0  0  0  0  0  0  0  0  0  0  0
  -11.5997  -17.4156   17.1505 H   0  0  0  0  0  0  0  0  0  0  0  0
   -8.8141  -16.0404   18.4746 H   0  0  0  0  0  0  0  0  0  0  0  0
   -8.2124  -13.4848    8.7947 H   0  0  0  0  0  0  0  0  0  0  0  0
  1  2  1  0
  2  3  1  0
  2  4  1  0
  4  5  1  0
  5  6  1  0
  6  7  2  0
  7  8  1  0
  8  9  2  0
  9 10  1  0
 10 11  1  0
 11 12  1  0
 12 13  1  0
 13 14  1  0
 14 15  1  0
 15 16  2  0
 16 17  1  0
 17 18  2  0
 18 19  1  0
  9 20  1  0
 20 21  2  0
 21 22  1  0
 22 23  2  0
 23  5  1  0
 23  8  1  0
 14 10  1  0
 19 15  1  0
  1 24  1  0
  1 25  1  0
  1 26  1  0
  2 27  1  0
  3 28  1  0
  4 29  1  0
  4 30  1  0
  6 31  1  0
 11 32  1  0
 11 33  1  0
 12 34  1  0
 12 35  1  0
 13 36  1  0
 13 37  1  0
 14 38  1  0
 17 39  1  0
 18 40  1  0
 19 41  1  0
 21 42  1  0
M  END
>  <Energy>  (748) 
905.8931094620981

>  <compound_id>  (748) 
18087

>  <target_id>  (748) 
1

>  <reference_id>  (748) 
64

>  <inspiration_ids>  (748) 
[99, 64]

>  <energy_score>  (748) 
818.2269164937552

>  <distance_score>  (748) 
10.1172827420779

>  <path>  (748) 
/opt/xchem-fragalysis-2/maxwin/BulkDock/SCRATCH/511025/C18087-P64/C18087-P64.minimised.mol

>  <scratch_subdir>  (748) 
/opt/xchem-fragalysis-2/maxwin/BulkDock/SCRATCH/511025/C18087-P64

>  <fragmenstein_runtime>  (748) 
21.741410970687866

>  <fragmenstein_outcome>  (748) 
too moved

>  <fragmenstein_mode>  (748) 
expansion

>  <fragmenstein_error>  (748) 


$$$$
C18088-P99
     RDKit          3D

 42 45  0  0  0  0  0  0  0  0999 V2000
   -9.1556   -4.5264   14.3257 C   0  0  0  0  0  0  0  0  0  0  0  0
   -8.5860   -3.3523   15.0832 C   0  0  0  0  0  0  0  0  0  0  0  0
   -8.8159   -2.1799   14.3093 O   0  0  0  0  0  0  0  0  0  0  0  0
   -9.2912   -3.1520   16.4188 C   0  0  0  0  0  0  0  0  0  0  0  0
   -9.3998   -4.3010   17.2975 N   0  0  0  0  0  0  0  0  0  0  0  0
  -10.5349   -5.0416   17.5018 C   0  0  0  0  0  0  0  0  0  0  0  0
  -10.4705   -5.7711   18.6038 N   0  0  0  0  0  0  0  0  0  0  0  0
   -9.2094   -5.5386   19.1290 C   0  0  0  0  0  0  0  0  0  0  0  0
   -8.5477   -5.9670   20.3319 C   0  0  0  0  0  0  0  0  0  0  0  0
   -9.0082   -6.7735   21.4120 N   0  0  0  0  0  0  0  0  0  0  0  0
   -8.3246   -6.4461   22.6775 C   0  0  0  0  0  0  0  0  0  0  0  0
   -8.9650   -7.3635   23.7067 C   0  0  0  0  0  0  0  0  0  0  0  0
  -10.4300   -7.5293   23.2740 C   0  0  0  0  0  0  0  0  0  0  0  0
  -10.9591   -8.9193   23.7140 C   0  0  0  0  0  0  0  0  0  0  0  0
  -10.2911   -9.8419   24.3991 N   0  0  0  0  0  0  0  0  0  0  0  0
  -11.1766  -10.8421   24.7188 C   0  0  0  0  0  0  0  0  0  0  0  0
  -12.4093  -10.5632   24.1949 C   0  0  0  0  0  0  0  0  0  0  0  0
  -12.2657   -9.3486   23.5657 N   0  0  0  0  0  0  0  0  0  0  0  0
  -10.4245   -7.0804   21.7494 C   0  0  0  0  0  0  0  0  0  0  0  0
   -7.2469   -5.5227   20.4469 N   0  0  0  0  0  0  0  0  0  0  0  0
   -6.6960   -4.7093   19.5218 C   0  0  0  0  0  0  0  0  0  0  0  0
   -7.2634   -4.2051   18.4180 N   0  0  0  0  0  0  0  0  0  0  0  0
   -8.5151   -4.6635   18.2785 C   0  0  0  0  0  0  0  0  0  0  0  0
   -8.8453   -5.4614   14.7994 H   0  0  0  0  0  0  0  0  0  0  0  0
   -8.8355   -4.5124   13.2871 H   0  0  0  0  0  0  0  0  0  0  0  0
  -10.2472   -4.5022   14.3344 H   0  0  0  0  0  0  0  0  0  0  0  0
   -7.5068   -3.4873   15.2171 H   0  0  0  0  0  0  0  0  0  0  0  0
   -8.0799   -1.5628   14.4771 H   0  0  0  0  0  0  0  0  0  0  0  0
  -10.3118   -2.7804   16.2512 H   0  0  0  0  0  0  0  0  0  0  0  0
   -8.7920   -2.3528   16.9821 H   0  0  0  0  0  0  0  0  0  0  0  0
  -11.3972   -4.9750   16.8496 H   0  0  0  0  0  0  0  0  0  0  0  0
   -8.5004   -5.3976   22.9512 H   0  0  0  0  0  0  0  0  0  0  0  0
   -7.2455   -6.6347   22.6414 H   0  0  0  0  0  0  0  0  0  0  0  0
   -8.8805   -6.9564   24.7201 H   0  0  0  0  0  0  0  0  0  0  0  0
   -8.4305   -8.3203   23.7040 H   0  0  0  0  0  0  0  0  0  0  0  0
  -11.0395   -6.7936   23.8179 H   0  0  0  0  0  0  0  0  0  0  0  0
  -10.8750  -11.6901   25.3164 H   0  0  0  0  0  0  0  0  0  0  0  0
  -13.3563  -11.0815   24.2284 H   0  0  0  0  0  0  0  0  0  0  0  0
  -13.0027   -8.8303   23.1078 H   0  0  0  0  0  0  0  0  0  0  0  0
  -11.0210   -6.1640   21.6581 H   0  0  0  0  0  0  0  0  0  0  0  0
  -10.8596   -7.8232   21.0857 H   0  0  0  0  0  0  0  0  0  0  0  0
   -5.6655   -4.4193   19.7050 H   0  0  0  0  0  0  0  0  0  0  0  0
  1  2  1  0
  2  3  1  0
  2  4  1  0
  4  5  1  0
  5  6  1  0
  6  7  2  0
  7  8  1  0
  8  9  2  0
  9 10  1  0
 10 11  1  0
 11 12  1  0
 12 13  1  0
 13 14  1  0
 14 15  2  0
 15 16  1  0
 16 17  2  0
 17 18  1  0
 13 19  1  0
  9 20  1  0
 20 21  2  0
 21 22  1  0
 22 23  2  0
 23  5  1  0
 23  8  1  0
 19 10  1  0
 18 14  1  0
  1 24  1  0
  1 25  1  0
  1 26  1  0
  2 27  1  0
  3 28  1  0
  4 29  1  0
  4 30  1  0
  6 31  1  0
 11 32  1  0
 11 33  1  0
 12 34  1  0
 12 35  1  0
 13 36  1  0
 16 37  1  0
 17 38  1  0
 18 39  1  0
 19 40  1  0
 19 41  1  0
 21 42  1  0
M  END
>  <Energy>  (749) 
55.340016155815512

>  <compound_id>  (749) 
18088

>  <target_id>  (749) 
1

>  <reference_id>  (749) 
99

>  <inspiration_ids>  (749) 
[99, 64]

>  <energy_score>  (749) 
-34.131243829273444

>  <distance_score>  (749) 
12.469186065947596

>  <path>  (749) 
/opt/xchem-fragalysis-2/maxwin/BulkDock/SCRATCH/511025/C18088-P99/C18088-P99.minimised.mol

>  <scratch_subdir>  (749) 
/opt/xchem-fragalysis-2/maxwin/BulkDock/SCRATCH/511025/C18088-P99

>  <fragmenstein_runtime>  (749) 
31.500264883041382

>  <fragmenstein_outcome>  (749) 
too moved

>  <fragmenstein_mode>  (749) 
expansion

>  <fragmenstein_error>  (749) 


$$$$
C18088-P64
     RDKit          3D

 42 45  0  0  0  0  0  0  0  0999 V2000
   -3.0300  -16.4105   12.8327 C   0  0  0  0  0  0  0  0  0  0  0  0
   -4.1092  -17.0935   13.7173 C   0  0  0  0  0  0  0  0  0  0  0  0
   -5.3362  -16.5433   13.2935 O   0  0  0  0  0  0  0  0  0  0  0  0
   -3.7180  -17.0062   15.3532 C   0  0  0  0  0  0  0  0  0  0  0  0
   -3.9399  -17.7131   16.9628 N   0  0  0  0  0  0  0  0  0  0  0  0
   -4.6773  -17.0552   17.8728 C   0  0  0  0  0  0  0  0  0  0  0  0
   -5.2684  -17.8502   18.7771 N   0  0  0  0  0  0  0  0  0  0  0  0
   -4.4304  -18.9331   18.9109 C   0  0  0  0  0  0  0  0  0  0  0  0
   -4.3855  -20.3068   19.7503 C   0  0  0  0  0  0  0  0  0  0  0  0
   -5.5212  -21.3027   20.5122 N   0  0  0  0  0  0  0  0  0  0  0  0
   -7.3235  -20.3302   20.4207 C   0  0  0  0  0  0  0  0  0  0  0  0
   -8.8122  -21.9189   20.4057 C   0  0  0  0  0  0  0  0  0  0  0  0
   -7.6893  -23.8281   20.8923 C   0  0  0  0  0  0  0  0  0  0  0  0
   -8.4496  -23.5639   22.7672 C   0  0  0  0  0  0  0  0  0  0  0  0
   -8.8457  -24.2913   23.8188 N   0  0  0  0  0  0  0  0  0  0  0  0
  -10.1903  -24.0236   24.2069 C   0  0  0  0  0  0  0  0  0  0  0  0
  -10.6353  -22.9358   23.5138 C   0  0  0  0  0  0  0  0  0  0  0  0
   -9.4555  -22.4901   22.9581 N   0  0  0  0  0  0  0  0  0  0  0  0
   -5.4979  -23.3864   20.6237 C   0  0  0  0  0  0  0  0  0  0  0  0
   -3.0858  -20.8264   19.6780 N   0  0  0  0  0  0  0  0  0  0  0  0
   -2.1015  -20.1892   18.9502 C   0  0  0  0  0  0  0  0  0  0  0  0
   -2.1028  -19.0962   18.1134 N   0  0  0  0  0  0  0  0  0  0  0  0
   -3.3336  -18.5572   18.0199 C   0  0  0  0  0  0  0  0  0  0  0  0
   -2.0334  -16.7880   13.0818 H   0  0  0  0  0  0  0  0  0  0  0  0
   -3.0176  -15.3231   12.9104 H   0  0  0  0  0  0  0  0  0  0  0  0
   -3.2207  -16.6360   11.7769 H   0  0  0  0  0  0  0  0  0  0  0  0
   -4.1275  -18.1497   13.4232 H   0  0  0  0  0  0  0  0  0  0  0  0
   -5.4193  -16.7511   12.3454 H   0  0  0  0  0  0  0  0  0  0  0  0
   -2.9055  -17.7069   15.0798 H   0  0  0  0  0  0  0  0  0  0  0  0
   -3.6515  -15.9736   15.6547 H   0  0  0  0  0  0  0  0  0  0  0  0
   -4.8648  -16.0661   17.5273 H   0  0  0  0  0  0  0  0  0  0  0  0
   -7.3174  -19.6760   21.3254 H   0  0  0  0  0  0  0  0  0  0  0  0
   -7.2092  -19.7045   19.5145 H   0  0  0  0  0  0  0  0  0  0  0  0
   -9.7223  -21.6923   20.9617 H   0  0  0  0  0  0  0  0  0  0  0  0
   -9.2894  -21.9563   19.3963 H   0  0  0  0  0  0  0  0  0  0  0  0
   -8.0983  -24.7090   20.3786 H   0  0  0  0  0  0  0  0  0  0  0  0
  -10.7014  -24.6144   24.9555 H   0  0  0  0  0  0  0  0  0  0  0  0
  -11.5497  -22.3601   23.5005 H   0  0  0  0  0  0  0  0  0  0  0  0
   -9.3649  -21.5728   22.5684 H   0  0  0  0  0  0  0  0  0  0  0  0
   -4.9669  -23.5068   21.6394 H   0  0  0  0  0  0  0  0  0  0  0  0
   -4.7050  -23.9934   20.1168 H   0  0  0  0  0  0  0  0  0  0  0  0
   -1.1306  -20.6766   19.0248 H   0  0  0  0  0  0  0  0  0  0  0  0
  1  2  1  0
  2  3  1  0
  2  4  1  0
  4  5  1  0
  5  6  1  0
  6  7  2  0
  7  8  1  0
  8  9  2  0
  9 10  1  0
 10 11  1  0
 11 12  1  0
 12 13  1  0
 13 14  1  0
 14 15  2  0
 15 16  1  0
 16 17  2  0
 17 18  1  0
 13 19  1  0
  9 20  1  0
 20 21  2  0
 21 22  1  0
 22 23  2  0
 23  5  1  0
 23  8  1  0
 19 10  1  0
 18 14  1  0
  1 24  1  0
  1 25  1  0
  1 26  1  0
  2 27  1  0
  3 28  1  0
  4 29  1  0
  4 30  1  0
  6 31  1  0
 11 32  1  0
 11 33  1  0
 12 34  1  0
 12 35  1  0
 13 36  1  0
 16 37  1  0
 17 38  1  0
 18 39  1  0
 19 40  1  0
 19 41  1  0
 21 42  1  0
M  END
>  <Energy>  (750) 
937.47100490450237

>  <compound_id>  (750) 
18088

>  <target_id>  (750) 
1

>  <reference_id>  (750) 
64

>  <inspiration_ids>  (750) 
[99, 64]

>  <energy_score>  (750) 
847.9997449194141

>  <distance_score>  (750) 
15.016805324116282

>  <path>  (750) 
/opt/xchem-fragalysis-2/maxwin/BulkDock/SCRATCH/511025/C18088-P64/C18088-P64.minimised.mol

>  <scratch_subdir>  (750) 
/opt/xchem-fragalysis-2/maxwin/BulkDock/SCRATCH/511025/C18088-P64

>  <fragmenstein_runtime>  (750) 
28.38131809234619

>  <fragmenstein_outcome>  (750) 
too moved

>  <fragmenstein_mode>  (750) 
expansion

>  <fragmenstein_error>  (750) 


$$$$
C46380-P99
     RDKit          3D

 37 38  0  0  0  0  0  0  0  0999 V2000
   -8.2586  -12.0769   16.2893 C   0  0  0  0  0  0  0  0  0  0  0  0
   -8.5623  -11.2488   14.5607 C   0  0  0  0  0  0  0  0  0  0  0  0
   -8.6519  -12.0966   13.6983 O   0  0  0  0  0  0  0  0  0  0  0  0
   -8.7582   -9.7402   14.4820 N   0  0  0  0  0  0  0  0  0  0  0  0
   -9.1666   -9.0131   13.4907 C   0  0  0  0  0  0  0  0  0  0  0  0
   -7.4615   -8.3139   14.1133 C   0  0  0  0  0  0  0  0  0  0  0  0
   -6.5274   -7.6994   12.9578 C   0  0  0  0  0  0  0  0  0  0  0  0
   -6.5588   -6.2213   13.1514 C   0  0  0  0  0  0  0  0  0  0  0  0
   -7.6575   -5.1566   13.4965 N   0  0  0  0  0  0  0  0  0  0  0  0
   -9.2051   -4.7997   12.6941 C   0  0  0  0  0  0  0  0  0  0  0  0
  -10.1187   -5.4004   13.1296 O   0  0  0  0  0  0  0  0  0  0  0  0
   -9.7955   -3.8193   11.1007 C   0  0  0  0  0  0  0  0  0  0  0  0
  -10.3336   -5.0162   10.7274 O   0  0  0  0  0  0  0  0  0  0  0  0
   -9.2160   -3.3302    9.2836 C   0  0  0  0  0  0  0  0  0  0  0  0
   -8.6351   -3.9817    8.2025 C   0  0  0  0  0  0  0  0  0  0  0  0
   -8.6048   -3.0690    7.1738 N   0  0  0  0  0  0  0  0  0  0  0  0
   -9.0560   -1.8767    7.6458 C   0  0  0  0  0  0  0  0  0  0  0  0
   -9.4031   -1.9650    8.9047 N   0  0  0  0  0  0  0  0  0  0  0  0
   -7.2308   -6.3890   14.8004 C   0  0  0  0  0  0  0  0  0  0  0  0
   -7.9055  -13.1114   16.2880 H   0  0  0  0  0  0  0  0  0  0  0  0
   -9.0015  -12.2217   17.1062 H   0  0  0  0  0  0  0  0  0  0  0  0
   -7.5355  -11.5159   16.9645 H   0  0  0  0  0  0  0  0  0  0  0  0
   -8.6421   -9.1804   12.5545 H   0  0  0  0  0  0  0  0  0  0  0  0
   -9.4393   -8.1693   14.0862 H   0  0  0  0  0  0  0  0  0  0  0  0
  -10.0977   -9.5296   13.2326 H   0  0  0  0  0  0  0  0  0  0  0  0
   -6.8944   -9.1627   13.6923 H   0  0  0  0  0  0  0  0  0  0  0  0
   -5.4805   -8.0385   12.9727 H   0  0  0  0  0  0  0  0  0  0  0  0
   -6.7276   -7.7303   11.9207 H   0  0  0  0  0  0  0  0  0  0  0  0
   -6.1264   -5.7971   12.2334 H   0  0  0  0  0  0  0  0  0  0  0  0
   -5.6260   -5.8836   13.6730 H   0  0  0  0  0  0  0  0  0  0  0  0
  -10.4353   -2.9131   11.2573 H   0  0  0  0  0  0  0  0  0  0  0  0
  -10.5979   -5.4783   11.5137 H   0  0  0  0  0  0  0  0  0  0  0  0
   -8.2641   -4.9602    8.0000 H   0  0  0  0  0  0  0  0  0  0  0  0
   -8.3016   -3.2555    6.2292 H   0  0  0  0  0  0  0  0  0  0  0  0
   -9.1168   -0.9889    7.0331 H   0  0  0  0  0  0  0  0  0  0  0  0
   -8.1033   -6.1825   15.4133 H   0  0  0  0  0  0  0  0  0  0  0  0
   -6.3570   -6.1411   15.4211 H   0  0  0  0  0  0  0  0  0  0  0  0
  1  2  1  0
  2  3  2  0
  2  4  1  0
  4  5  1  0
  4  6  1  0
  6  7  1  0
  7  8  1  0
  8  9  1  0
  9 10  1  0
 10 11  2  0
 10 12  1  0
 12 13  1  0
 12 14  1  0
 14 15  2  0
 15 16  1  0
 16 17  1  0
 17 18  2  0
  9 19  1  0
 19  6  1  0
 18 14  1  0
  1 20  1  0
  1 21  1  0
  1 22  1  0
  5 23  1  0
  5 24  1  0
  5 25  1  0
  6 26  1  0
  7 27  1  0
  7 28  1  0
  8 29  1  0
  8 30  1  0
 12 31  1  0
 13 32  1  0
 15 33  1  0
 16 34  1  0
 17 35  1  0
 19 36  1  0
 19 37  1  0
M  END
>  <Energy>  (751) 
885.53856618028669

>  <compound_id>  (751) 
46380

>  <target_id>  (751) 
1

>  <reference_id>  (751) 
99

>  <inspiration_ids>  (751) 
[99, 64]

>  <energy_score>  (751) 
791.444668951164

>  <distance_score>  (751) 
10.90993116431834

>  <path>  (751) 
/opt/xchem-fragalysis-2/maxwin/BulkDock/SCRATCH/511025/C46380-P99/C46380-P99.minimised.mol

>  <scratch_subdir>  (751) 
/opt/xchem-fragalysis-2/maxwin/BulkDock/SCRATCH/511025/C46380-P99

>  <fragmenstein_runtime>  (751) 
20.93627119064331

>  <fragmenstein_outcome>  (751) 
too moved

>  <fragmenstein_mode>  (751) 
expansion

>  <fragmenstein_error>  (751) 


$$$$
C46380-P64
     RDKit          3D

 37 38  0  0  0  0  0  0  0  0999 V2000
   -8.1778   -9.1810   13.5453 C   0  0  0  0  0  0  0  0  0  0  0  0
   -6.6419   -9.0495   13.3088 C   0  0  0  0  0  0  0  0  0  0  0  0
   -6.0817  -10.0920   13.6197 O   0  0  0  0  0  0  0  0  0  0  0  0
   -6.0830   -7.7727   12.8810 N   0  0  0  0  0  0  0  0  0  0  0  0
   -4.7246   -7.3360   12.8029 C   0  0  0  0  0  0  0  0  0  0  0  0
   -5.8751   -7.6228   11.0922 C   0  0  0  0  0  0  0  0  0  0  0  0
   -5.6171   -6.1413   10.9993 C   0  0  0  0  0  0  0  0  0  0  0  0
   -6.9018   -5.2066   10.1457 C   0  0  0  0  0  0  0  0  0  0  0  0
   -6.7937   -5.4649    8.8794 N   0  0  0  0  0  0  0  0  0  0  0  0
   -7.8556   -4.7032    8.0657 C   0  0  0  0  0  0  0  0  0  0  0  0
   -8.9741   -5.0318    7.7386 O   0  0  0  0  0  0  0  0  0  0  0  0
   -7.3977   -3.3119    7.4558 C   0  0  0  0  0  0  0  0  0  0  0  0
   -7.7565   -2.2090    8.2823 O   0  0  0  0  0  0  0  0  0  0  0  0
   -8.0555   -3.1188    6.1000 C   0  0  0  0  0  0  0  0  0  0  0  0
   -9.4001   -2.9442    5.8202 C   0  0  0  0  0  0  0  0  0  0  0  0
   -9.4887   -2.8547    4.4630 N   0  0  0  0  0  0  0  0  0  0  0  0
   -8.2158   -2.8837    3.9720 C   0  0  0  0  0  0  0  0  0  0  0  0
   -7.3307   -3.0627    4.9274 N   0  0  0  0  0  0  0  0  0  0  0  0
   -6.7841   -7.2980    9.5689 C   0  0  0  0  0  0  0  0  0  0  0  0
   -8.3570  -10.0971   14.1145 H   0  0  0  0  0  0  0  0  0  0  0  0
   -8.5754   -8.3893   14.1381 H   0  0  0  0  0  0  0  0  0  0  0  0
   -8.7724   -9.3461   12.6482 H   0  0  0  0  0  0  0  0  0  0  0  0
   -4.6682   -6.3336   13.2380 H   0  0  0  0  0  0  0  0  0  0  0  0
   -4.0969   -7.8336   13.5337 H   0  0  0  0  0  0  0  0  0  0  0  0
   -4.0766   -7.8284   12.0778 H   0  0  0  0  0  0  0  0  0  0  0  0
   -5.1158   -8.3360   10.7579 H   0  0  0  0  0  0  0  0  0  0  0  0
   -4.6753   -6.0803   10.4693 H   0  0  0  0  0  0  0  0  0  0  0  0
   -5.5956   -5.5831   11.9355 H   0  0  0  0  0  0  0  0  0  0  0  0
   -6.8153   -4.4216   10.7847 H   0  0  0  0  0  0  0  0  0  0  0  0
   -7.9511   -5.0599   10.2180 H   0  0  0  0  0  0  0  0  0  0  0  0
   -6.3131   -3.3169    7.3043 H   0  0  0  0  0  0  0  0  0  0  0  0
   -8.7278   -2.2677    8.3723 H   0  0  0  0  0  0  0  0  0  0  0  0
  -10.2765   -2.9346    6.4531 H   0  0  0  0  0  0  0  0  0  0  0  0
  -10.3462   -2.7812    3.9302 H   0  0  0  0  0  0  0  0  0  0  0  0
   -7.9964   -2.7798    2.9183 H   0  0  0  0  0  0  0  0  0  0  0  0
   -6.2362   -7.9776    8.8904 H   0  0  0  0  0  0  0  0  0  0  0  0
   -7.6376   -7.9508    9.3485 H   0  0  0  0  0  0  0  0  0  0  0  0
  1  2  1  0
  2  3  2  0
  2  4  1  0
  4  5  1  0
  4  6  1  0
  6  7  1  0
  7  8  1  0
  8  9  1  0
  9 10  1  0
 10 11  2  0
 10 12  1  0
 12 13  1  0
 12 14  1  0
 14 15  2  0
 15 16  1  0
 16 17  1  0
 17 18  2  0
  9 19  1  0
 19  6  1  0
 18 14  1  0
  1 20  1  0
  1 21  1  0
  1 22  1  0
  5 23  1  0
  5 24  1  0
  5 25  1  0
  6 26  1  0
  7 27  1  0
  7 28  1  0
  8 29  1  0
  8 30  1  0
 12 31  1  0
 13 32  1  0
 15 33  1  0
 16 34  1  0
 17 35  1  0
 19 36  1  0
 19 37  1  0
M  END
>  <Energy>  (752) 
462.48823432732712

>  <compound_id>  (752) 
46380

>  <target_id>  (752) 
1

>  <reference_id>  (752) 
64

>  <inspiration_ids>  (752) 
[99, 64]

>  <energy_score>  (752) 
368.39433709820236

>  <distance_score>  (752) 
11.535172832571732

>  <path>  (752) 
/opt/xchem-fragalysis-2/maxwin/BulkDock/SCRATCH/511025/C46380-P64/C46380-P64.minimised.mol

>  <scratch_subdir>  (752) 
/opt/xchem-fragalysis-2/maxwin/BulkDock/SCRATCH/511025/C46380-P64

>  <fragmenstein_runtime>  (752) 
22.880927324295044

>  <fragmenstein_outcome>  (752) 
too moved

>  <fragmenstein_mode>  (752) 
expansion

>  <fragmenstein_error>  (752) 


$$$$
C46382-P99
     RDKit          3D

 47 48  0  0  0  0  0  0  0  0999 V2000
   -5.6243  -12.8387   11.5499 C   0  0  0  0  0  0  0  0  0  0  0  0
   -7.1275  -12.6706   12.0389 C   0  0  0  0  0  0  0  0  0  0  0  0
   -8.6042  -11.9378   11.8908 C   0  0  0  0  0  0  0  0  0  0  0  0
   -9.6042  -11.6258   12.8606 N   0  0  0  0  0  0  0  0  0  0  0  0
   -9.2383  -12.1354   14.0428 C   0  0  0  0  0  0  0  0  0  0  0  0
   -8.6333  -11.6613   14.9214 O   0  0  0  0  0  0  0  0  0  0  0  0
   -9.6381  -13.5843   14.0814 C   0  0  0  0  0  0  0  0  0  0  0  0
  -10.2627  -14.0889   12.9238 O   0  0  0  0  0  0  0  0  0  0  0  0
  -11.2651  -15.0052   13.1648 C   0  0  0  0  0  0  0  0  0  0  0  0
   -9.4316   -9.8718   12.1728 C   0  0  0  0  0  0  0  0  0  0  0  0
   -8.4604   -9.1130   12.9713 C   0  0  0  0  0  0  0  0  0  0  0  0
   -8.0955   -8.0518   11.7112 C   0  0  0  0  0  0  0  0  0  0  0  0
   -9.7970   -6.4531   11.2353 N   0  0  0  0  0  0  0  0  0  0  0  0
   -9.8281   -4.8026   10.3662 C   0  0  0  0  0  0  0  0  0  0  0  0
   -9.9803   -4.9864    9.1963 O   0  0  0  0  0  0  0  0  0  0  0  0
   -9.9478   -2.8635   10.7036 C   0  0  0  0  0  0  0  0  0  0  0  0
   -9.2881   -2.6953    9.0576 O   0  0  0  0  0  0  0  0  0  0  0  0
  -11.2442   -1.6892   10.7455 C   0  0  0  0  0  0  0  0  0  0  0  0
  -11.7735   -1.0120   11.8261 C   0  0  0  0  0  0  0  0  0  0  0  0
  -12.5529   -0.0150   11.3049 N   0  0  0  0  0  0  0  0  0  0  0  0
  -12.4652   -0.0732    9.9494 C   0  0  0  0  0  0  0  0  0  0  0  0
  -11.6782   -1.0479    9.5739 N   0  0  0  0  0  0  0  0  0  0  0  0
   -9.7867   -8.6289   10.6110 C   0  0  0  0  0  0  0  0  0  0  0  0
   -4.9167  -12.0600   11.8095 H   0  0  0  0  0  0  0  0  0  0  0  0
   -5.5347  -13.0113   10.4694 H   0  0  0  0  0  0  0  0  0  0  0  0
   -5.1589  -13.7527   11.9471 H   0  0  0  0  0  0  0  0  0  0  0  0
   -7.3727  -13.2153   11.1295 H   0  0  0  0  0  0  0  0  0  0  0  0
   -7.1617  -13.1195   13.0061 H   0  0  0  0  0  0  0  0  0  0  0  0
   -9.1899  -12.3397   11.0175 H   0  0  0  0  0  0  0  0  0  0  0  0
   -8.8641  -12.9725   12.0882 H   0  0  0  0  0  0  0  0  0  0  0  0
  -10.2851  -13.4652   14.8933 H   0  0  0  0  0  0  0  0  0  0  0  0
   -8.7888  -14.2079   14.3309 H   0  0  0  0  0  0  0  0  0  0  0  0
  -12.0026  -14.8723   12.3988 H   0  0  0  0  0  0  0  0  0  0  0  0
  -11.9289  -14.8298   14.0014 H   0  0  0  0  0  0  0  0  0  0  0  0
  -10.7883  -15.9799   13.1922 H   0  0  0  0  0  0  0  0  0  0  0  0
  -10.3273   -9.6273   12.7187 H   0  0  0  0  0  0  0  0  0  0  0  0
   -7.6054   -9.5982   13.4342 H   0  0  0  0  0  0  0  0  0  0  0  0
   -8.9363   -8.6944   13.8590 H   0  0  0  0  0  0  0  0  0  0  0  0
   -7.7365   -8.4116   10.6779 H   0  0  0  0  0  0  0  0  0  0  0  0
   -7.0638   -7.6347   11.9965 H   0  0  0  0  0  0  0  0  0  0  0  0
   -9.6032   -1.8227   10.5844 H   0  0  0  0  0  0  0  0  0  0  0  0
  -10.0601   -3.1138    8.6145 H   0  0  0  0  0  0  0  0  0  0  0  0
  -11.6408   -1.1342   12.8904 H   0  0  0  0  0  0  0  0  0  0  0  0
  -13.0644    0.6784   11.8310 H   0  0  0  0  0  0  0  0  0  0  0  0
  -12.9723    0.6196    9.2924 H   0  0  0  0  0  0  0  0  0  0  0  0
   -9.0292   -8.5793    9.8236 H   0  0  0  0  0  0  0  0  0  0  0  0
  -10.6915   -9.1862   10.1494 H   0  0  0  0  0  0  0  0  0  0  0  0
  1  2  1  0
  2  3  1  0
  3  4  1  0
  4  5  1  0
  5  6  2  0
  5  7  1  0
  7  8  1  0
  8  9  1  0
  4 10  1  0
 10 11  1  0
 11 12  1  0
 12 13  1  0
 13 14  1  0
 14 15  2  0
 14 16  1  0
 16 17  1  0
 16 18  1  0
 18 19  2  0
 19 20  1  0
 20 21  1  0
 21 22  2  0
 13 23  1  0
 23 10  1  0
 22 18  1  0
  1 24  1  0
  1 25  1  0
  1 26  1  0
  2 27  1  0
  2 28  1  0
  3 29  1  0
  3 30  1  0
  7 31  1  0
  7 32  1  0
  9 33  1  0
  9 34  1  0
  9 35  1  0
 10 36  1  0
 11 37  1  0
 11 38  1  0
 12 39  1  0
 12 40  1  0
 16 41  1  0
 17 42  1  0
 19 43  1  0
 20 44  1  0
 21 45  1  0
 23 46  1  0
 23 47  1  0
M  END
>  <Energy>  (753) 
1492.2909284011143

>  <compound_id>  (753) 
46382

>  <target_id>  (753) 
1

>  <reference_id>  (753) 
99

>  <inspiration_ids>  (753) 
[99, 64]

>  <energy_score>  (753) 
1341.6458966377363

>  <distance_score>  (753) 
12.856062870487003

>  <path>  (753) 
/opt/xchem-fragalysis-2/maxwin/BulkDock/SCRATCH/511025/C46382-P99/C46382-P99.minimised.mol

>  <scratch_subdir>  (753) 
/opt/xchem-fragalysis-2/maxwin/BulkDock/SCRATCH/511025/C46382-P99

>  <fragmenstein_runtime>  (753) 
53.46350812911987

>  <fragmenstein_outcome>  (753) 
too moved

>  <fragmenstein_mode>  (753) 
expansion

>  <fragmenstein_error>  (753) 


$$$$
C46382-P64
     RDKit          3D

 47 48  0  0  0  0  0  0  0  0999 V2000
   -8.1831  -13.5190   19.1930 C   0  0  0  0  0  0  0  0  0  0  0  0
   -8.1996  -12.4127   18.1577 C   0  0  0  0  0  0  0  0  0  0  0  0
   -8.0389  -11.8260   16.3403 C   0  0  0  0  0  0  0  0  0  0  0  0
   -9.2741  -11.5221   14.9134 N   0  0  0  0  0  0  0  0  0  0  0  0
   -9.8170  -12.6425   14.6034 C   0  0  0  0  0  0  0  0  0  0  0  0
   -9.5314  -13.4692   13.8001 O   0  0  0  0  0  0  0  0  0  0  0  0
  -11.0876  -12.5709   15.7445 C   0  0  0  0  0  0  0  0  0  0  0  0
  -10.7224  -12.3684   17.0800 O   0  0  0  0  0  0  0  0  0  0  0  0
  -11.3119  -11.5537   17.9556 C   0  0  0  0  0  0  0  0  0  0  0  0
   -8.0844  -10.7234   14.2533 C   0  0  0  0  0  0  0  0  0  0  0  0
   -9.2893  -10.1333   13.2928 C   0  0  0  0  0  0  0  0  0  0  0  0
   -8.8450   -9.0636   12.3363 C   0  0  0  0  0  0  0  0  0  0  0  0
   -7.4472   -7.9347   12.7701 N   0  0  0  0  0  0  0  0  0  0  0  0
   -7.4309   -5.9240   12.6354 C   0  0  0  0  0  0  0  0  0  0  0  0
   -7.7842   -5.1165   13.5843 O   0  0  0  0  0  0  0  0  0  0  0  0
   -7.0615   -4.9113   11.0077 C   0  0  0  0  0  0  0  0  0  0  0  0
   -8.6672   -4.7277   11.7916 O   0  0  0  0  0  0  0  0  0  0  0  0
   -7.6597   -4.7340    9.2089 C   0  0  0  0  0  0  0  0  0  0  0  0
   -7.1352   -4.4214    7.9211 C   0  0  0  0  0  0  0  0  0  0  0  0
   -8.1257   -4.0854    7.0390 N   0  0  0  0  0  0  0  0  0  0  0  0
   -9.1362   -3.7229    7.8343 C   0  0  0  0  0  0  0  0  0  0  0  0
   -8.9772   -4.2425    9.0328 N   0  0  0  0  0  0  0  0  0  0  0  0
   -7.7685   -8.8837   14.0357 C   0  0  0  0  0  0  0  0  0  0  0  0
   -8.4822  -14.5454   19.0810 H   0  0  0  0  0  0  0  0  0  0  0  0
   -8.9943  -13.2746   19.8129 H   0  0  0  0  0  0  0  0  0  0  0  0
   -7.3753  -13.3920   19.9249 H   0  0  0  0  0  0  0  0  0  0  0  0
   -9.1552  -12.0946   18.5177 H   0  0  0  0  0  0  0  0  0  0  0  0
   -7.4228  -11.7627   18.5497 H   0  0  0  0  0  0  0  0  0  0  0  0
   -8.0325  -12.9096   16.3591 H   0  0  0  0  0  0  0  0  0  0  0  0
   -7.2365  -11.0384   16.6693 H   0  0  0  0  0  0  0  0  0  0  0  0
  -11.3991  -11.5280   15.7386 H   0  0  0  0  0  0  0  0  0  0  0  0
  -11.9538  -13.1791   15.4785 H   0  0  0  0  0  0  0  0  0  0  0  0
  -12.3922  -11.3630   17.9227 H   0  0  0  0  0  0  0  0  0  0  0  0
  -10.7512  -10.7314   18.3634 H   0  0  0  0  0  0  0  0  0  0  0  0
  -11.0653  -12.2838   18.6281 H   0  0  0  0  0  0  0  0  0  0  0  0
   -7.6331  -11.4377   13.5787 H   0  0  0  0  0  0  0  0  0  0  0  0
  -10.1036   -9.6804   13.8768 H   0  0  0  0  0  0  0  0  0  0  0  0
   -9.6996  -10.9625   12.6950 H   0  0  0  0  0  0  0  0  0  0  0  0
   -9.3368   -8.9157   11.3729 H   0  0  0  0  0  0  0  0  0  0  0  0
   -8.4521   -9.8613   11.8772 H   0  0  0  0  0  0  0  0  0  0  0  0
   -6.1034   -5.4913   11.2093 H   0  0  0  0  0  0  0  0  0  0  0  0
   -9.3304   -4.7273   11.0566 H   0  0  0  0  0  0  0  0  0  0  0  0
   -6.1663   -4.1704    7.5358 H   0  0  0  0  0  0  0  0  0  0  0  0
   -8.0077   -3.8224    6.0701 H   0  0  0  0  0  0  0  0  0  0  0  0
   -9.9828   -3.1445    7.4878 H   0  0  0  0  0  0  0  0  0  0  0  0
   -8.7813   -8.5029   14.2706 H   0  0  0  0  0  0  0  0  0  0  0  0
   -7.4994   -8.1453   14.7489 H   0  0  0  0  0  0  0  0  0  0  0  0
  1  2  1  0
  2  3  1  0
  3  4  1  0
  4  5  1  0
  5  6  2  0
  5  7  1  0
  7  8  1  0
  8  9  1  0
  4 10  1  0
 10 11  1  0
 11 12  1  0
 12 13  1  0
 13 14  1  0
 14 15  2  0
 14 16  1  0
 16 17  1  0
 16 18  1  0
 18 19  2  0
 19 20  1  0
 20 21  1  0
 21 22  2  0
 13 23  1  0
 23 10  1  0
 22 18  1  0
  1 24  1  0
  1 25  1  0
  1 26  1  0
  2 27  1  0
  2 28  1  0
  3 29  1  0
  3 30  1  0
  7 31  1  0
  7 32  1  0
  9 33  1  0
  9 34  1  0
  9 35  1  0
 10 36  1  0
 11 37  1  0
 11 38  1  0
 12 39  1  0
 12 40  1  0
 16 41  1  0
 17 42  1  0
 19 43  1  0
 20 44  1  0
 21 45  1  0
 23 46  1  0
 23 47  1  0
M  END
>  <Energy>  (754) 
1083.0966474795612

>  <compound_id>  (754) 
46382

>  <target_id>  (754) 
1

>  <reference_id>  (754) 
64

>  <inspiration_ids>  (754) 
[99, 64]

>  <energy_score>  (754) 
932.4516157161815

>  <distance_score>  (754) 
11.194152992622739

>  <path>  (754) 
/opt/xchem-fragalysis-2/maxwin/BulkDock/SCRATCH/511025/C46382-P64/C46382-P64.minimised.mol

>  <scratch_subdir>  (754) 
/opt/xchem-fragalysis-2/maxwin/BulkDock/SCRATCH/511025/C46382-P64

>  <fragmenstein_runtime>  (754) 
41.231035232543945

>  <fragmenstein_outcome>  (754) 
too moved

>  <fragmenstein_mode>  (754) 
expansion

>  <fragmenstein_error>  (754) 


$$$$
C22053-P99
     RDKit          3D

 40 41  0  0  0  0  0  0  0  0999 V2000
   -1.7190  -11.8317    0.2191 C   0  0  0  0  0  0  0  0  0  0  0  0
   -1.9279  -10.3421    0.0371 C   0  0  0  0  0  0  0  0  0  0  0  0
   -2.1987   -9.9022   -1.0408 O   0  0  0  0  0  0  0  0  0  0  0  0
   -1.7659   -9.6874    1.3020 N   0  0  0  0  0  0  0  0  0  0  0  0
   -1.7852   -8.2887    1.6520 C   0  0  0  0  0  0  0  0  0  0  0  0
   -3.1563   -7.8406    2.1544 C   0  0  0  0  0  0  0  0  0  0  0  0
   -4.2361   -7.8224    1.0696 C   0  0  0  0  0  0  0  0  0  0  0  0
   -4.0838   -6.7840    0.0133 C   0  0  0  0  0  0  0  0  0  0  0  0
   -5.3456   -5.9743    0.2448 C   0  0  0  0  0  0  0  0  0  0  0  0
   -5.7735   -5.9136    1.6934 N   0  0  0  0  0  0  0  0  0  0  0  0
   -6.9630   -5.1315    1.8263 C   0  0  0  0  0  0  0  0  0  0  0  0
   -8.1239   -5.4606    1.7922 O   0  0  0  0  0  0  0  0  0  0  0  0
   -6.6128   -3.6269    2.1708 C   0  0  0  0  0  0  0  0  0  0  0  0
   -5.3165   -3.4316    2.7282 O   0  0  0  0  0  0  0  0  0  0  0  0
   -7.6690   -3.0850    3.1109 C   0  0  0  0  0  0  0  0  0  0  0  0
   -7.8234   -3.2977    4.4699 C   0  0  0  0  0  0  0  0  0  0  0  0
   -9.0256   -2.7300    4.7922 N   0  0  0  0  0  0  0  0  0  0  0  0
   -9.5123   -2.1343    3.6637 C   0  0  0  0  0  0  0  0  0  0  0  0
   -8.7099   -2.3080    2.6382 N   0  0  0  0  0  0  0  0  0  0  0  0
   -5.5853   -7.3889    1.5818 C   0  0  0  0  0  0  0  0  0  0  0  0
   -0.6925  -12.0271    0.5420 H   0  0  0  0  0  0  0  0  0  0  0  0
   -1.8897  -12.3450   -0.7319 H   0  0  0  0  0  0  0  0  0  0  0  0
   -2.4261  -12.2226    0.9563 H   0  0  0  0  0  0  0  0  0  0  0  0
   -1.4540  -10.3659    1.9877 H   0  0  0  0  0  0  0  0  0  0  0  0
   -1.4736   -7.7134    0.7753 H   0  0  0  0  0  0  0  0  0  0  0  0
   -1.0385   -8.1467    2.4399 H   0  0  0  0  0  0  0  0  0  0  0  0
   -3.0668   -6.8460    2.6004 H   0  0  0  0  0  0  0  0  0  0  0  0
   -3.4735   -8.5129    2.9623 H   0  0  0  0  0  0  0  0  0  0  0  0
   -4.3249   -8.8251    0.6371 H   0  0  0  0  0  0  0  0  0  0  0  0
   -4.0824   -7.2105   -0.9957 H   0  0  0  0  0  0  0  0  0  0  0  0
   -3.1727   -6.2036    0.1118 H   0  0  0  0  0  0  0  0  0  0  0  0
   -6.1837   -6.3117   -0.3920 H   0  0  0  0  0  0  0  0  0  0  0  0
   -5.1837   -4.9402   -0.0845 H   0  0  0  0  0  0  0  0  0  0  0  0
   -6.6495   -3.0716    1.2268 H   0  0  0  0  0  0  0  0  0  0  0  0
   -5.2791   -4.0562    3.4741 H   0  0  0  0  0  0  0  0  0  0  0  0
   -7.2468   -3.8557    5.1940 H   0  0  0  0  0  0  0  0  0  0  0  0
   -9.4973   -2.7708    5.6867 H   0  0  0  0  0  0  0  0  0  0  0  0
  -10.4584   -1.6096    3.6541 H   0  0  0  0  0  0  0  0  0  0  0  0
   -5.7098   -7.7608    2.6049 H   0  0  0  0  0  0  0  0  0  0  0  0
   -6.4236   -7.8491    1.0305 H   0  0  0  0  0  0  0  0  0  0  0  0
  1  2  1  0
  2  3  2  0
  2  4  1  0
  4  5  1  0
  5  6  1  0
  6  7  1  0
  7  8  1  0
  8  9  1  0
  9 10  1  0
 10 11  1  0
 11 12  2  0
 11 13  1  0
 13 14  1  0
 13 15  1  0
 15 16  2  0
 16 17  1  0
 17 18  1  0
 18 19  2  0
 10 20  1  0
 20  7  1  0
 19 15  1  0
  1 21  1  0
  1 22  1  0
  1 23  1  0
  4 24  1  0
  5 25  1  0
  5 26  1  0
  6 27  1  0
  6 28  1  0
  7 29  1  0
  8 30  1  0
  8 31  1  0
  9 32  1  0
  9 33  1  0
 13 34  1  0
 14 35  1  0
 16 36  1  0
 17 37  1  0
 18 38  1  0
 20 39  1  0
 20 40  1  0
M  END
>  <Energy>  (755) 
110.0552022821898

>  <compound_id>  (755) 
22053

>  <target_id>  (755) 
1

>  <reference_id>  (755) 
99

>  <inspiration_ids>  (755) 
[99, 64]

>  <energy_score>  (755) 
34.83167126415526

>  <distance_score>  (755) 
20.03829862770471

>  <path>  (755) 
/opt/xchem-fragalysis-2/maxwin/BulkDock/SCRATCH/511025/C22053-P99/C22053-P99.minimised.mol

>  <scratch_subdir>  (755) 
/opt/xchem-fragalysis-2/maxwin/BulkDock/SCRATCH/511025/C22053-P99

>  <fragmenstein_runtime>  (755) 
28.3426775932312

>  <fragmenstein_outcome>  (755) 
too moved

>  <fragmenstein_mode>  (755) 
expansion

>  <fragmenstein_error>  (755) 


$$$$
C22053-P64
     RDKit          3D

 40 41  0  0  0  0  0  0  0  0999 V2000
   -9.0992  -18.5104   17.7619 C   0  0  0  0  0  0  0  0  0  0  0  0
   -8.0114  -18.0658   16.8055 C   0  0  0  0  0  0  0  0  0  0  0  0
   -7.5184  -18.8505   16.0513 O   0  0  0  0  0  0  0  0  0  0  0  0
   -7.7442  -16.6735   17.0144 N   0  0  0  0  0  0  0  0  0  0  0  0
   -6.8549  -15.7519   16.3087 C   0  0  0  0  0  0  0  0  0  0  0  0
   -6.6148  -14.0217   16.7257 C   0  0  0  0  0  0  0  0  0  0  0  0
   -6.1583  -12.5203   17.9901 C   0  0  0  0  0  0  0  0  0  0  0  0
   -4.9199  -11.6372   17.9237 C   0  0  0  0  0  0  0  0  0  0  0  0
   -5.4374  -10.4656   17.0761 C   0  0  0  0  0  0  0  0  0  0  0  0
   -6.8415   -9.9516   17.1829 N   0  0  0  0  0  0  0  0  0  0  0  0
   -7.1409   -9.1234   16.0722 C   0  0  0  0  0  0  0  0  0  0  0  0
   -7.6448   -9.4083   14.9296 O   0  0  0  0  0  0  0  0  0  0  0  0
   -6.8074   -7.3191   16.6293 C   0  0  0  0  0  0  0  0  0  0  0  0
   -5.6912   -6.7699   17.1697 O   0  0  0  0  0  0  0  0  0  0  0  0
   -7.5930   -5.8861   16.1180 C   0  0  0  0  0  0  0  0  0  0  0  0
   -8.6279   -5.4511   15.2981 C   0  0  0  0  0  0  0  0  0  0  0  0
   -8.5729   -4.0807   15.2523 N   0  0  0  0  0  0  0  0  0  0  0  0
   -7.5826   -3.6858   16.0958 C   0  0  0  0  0  0  0  0  0  0  0  0
   -6.9732   -4.7187   16.6270 N   0  0  0  0  0  0  0  0  0  0  0  0
   -7.1126  -11.4021   17.4589 C   0  0  0  0  0  0  0  0  0  0  0  0
  -10.0368  -18.0023   17.5205 H   0  0  0  0  0  0  0  0  0  0  0  0
   -9.2512  -19.5897   17.6685 H   0  0  0  0  0  0  0  0  0  0  0  0
   -8.8076  -18.2900   18.7928 H   0  0  0  0  0  0  0  0  0  0  0  0
   -8.4128  -16.3058   17.6790 H   0  0  0  0  0  0  0  0  0  0  0  0
   -7.2613  -15.7637   15.2889 H   0  0  0  0  0  0  0  0  0  0  0  0
   -5.8937  -16.2821   16.2469 H   0  0  0  0  0  0  0  0  0  0  0  0
   -7.5838  -13.8306   17.1413 H   0  0  0  0  0  0  0  0  0  0  0  0
   -5.6469  -14.3065   17.1339 H   0  0  0  0  0  0  0  0  0  0  0  0
   -6.5064  -12.7034   19.0170 H   0  0  0  0  0  0  0  0  0  0  0  0
   -3.8291  -11.7550   17.8064 H   0  0  0  0  0  0  0  0  0  0  0  0
   -4.5944  -11.5641   18.9845 H   0  0  0  0  0  0  0  0  0  0  0  0
   -5.5977  -10.6025   16.0579 H   0  0  0  0  0  0  0  0  0  0  0  0
   -4.5680   -9.7920   16.9857 H   0  0  0  0  0  0  0  0  0  0  0  0
   -7.2697   -7.4731   17.6103 H   0  0  0  0  0  0  0  0  0  0  0  0
   -5.8578   -5.7949   17.1623 H   0  0  0  0  0  0  0  0  0  0  0  0
   -9.3734   -5.9422   14.7007 H   0  0  0  0  0  0  0  0  0  0  0  0
   -9.1778   -3.4755   14.7121 H   0  0  0  0  0  0  0  0  0  0  0  0
   -7.3485   -2.6445   16.2748 H   0  0  0  0  0  0  0  0  0  0  0  0
   -7.5921  -11.2936   18.4490 H   0  0  0  0  0  0  0  0  0  0  0  0
   -7.9284  -11.9060   16.9089 H   0  0  0  0  0  0  0  0  0  0  0  0
  1  2  1  0
  2  3  2  0
  2  4  1  0
  4  5  1  0
  5  6  1  0
  6  7  1  0
  7  8  1  0
  8  9  1  0
  9 10  1  0
 10 11  1  0
 11 12  2  0
 11 13  1  0
 13 14  1  0
 13 15  1  0
 15 16  2  0
 16 17  1  0
 17 18  1  0
 18 19  2  0
 10 20  1  0
 20  7  1  0
 19 15  1  0
  1 21  1  0
  1 22  1  0
  1 23  1  0
  4 24  1  0
  5 25  1  0
  5 26  1  0
  6 27  1  0
  6 28  1  0
  7 29  1  0
  8 30  1  0
  8 31  1  0
  9 32  1  0
  9 33  1  0
 13 34  1  0
 14 35  1  0
 16 36  1  0
 17 37  1  0
 18 38  1  0
 20 39  1  0
 20 40  1  0
M  END
>  <Energy>  (756) 
394.08509830399259

>  <compound_id>  (756) 
22053

>  <target_id>  (756) 
1

>  <reference_id>  (756) 
64

>  <inspiration_ids>  (756) 
[99, 64]

>  <energy_score>  (756) 
318.8615672859591

>  <distance_score>  (756) 
12.94949916724845

>  <path>  (756) 
/opt/xchem-fragalysis-2/maxwin/BulkDock/SCRATCH/511025/C22053-P64/C22053-P64.minimised.mol

>  <scratch_subdir>  (756) 
/opt/xchem-fragalysis-2/maxwin/BulkDock/SCRATCH/511025/C22053-P64

>  <fragmenstein_runtime>  (756) 
35.002294301986694

>  <fragmenstein_outcome>  (756) 
too moved

>  <fragmenstein_mode>  (756) 
expansion

>  <fragmenstein_error>  (756) 


$$$$
C46383-P99
     RDKit          3D

 41 42  0  0  0  0  0  0  0  0999 V2000
   -6.9381  -17.5456   14.6736 C   0  0  0  0  0  0  0  0  0  0  0  0
   -7.2587  -16.3568   13.9280 O   0  0  0  0  0  0  0  0  0  0  0  0
   -6.8046  -16.1984   12.5590 C   0  0  0  0  0  0  0  0  0  0  0  0
   -5.7318  -17.2220   12.1516 C   0  0  0  0  0  0  0  0  0  0  0  0
   -6.3337  -14.7038   11.9094 C   0  0  0  0  0  0  0  0  0  0  0  0
   -5.5264  -14.7052   11.0211 O   0  0  0  0  0  0  0  0  0  0  0  0
   -7.0843  -13.6186   12.4965 N   0  0  0  0  0  0  0  0  0  0  0  0
   -7.1732  -12.1847   12.1282 C   0  0  0  0  0  0  0  0  0  0  0  0
   -6.1648  -11.1042   11.7784 C   0  0  0  0  0  0  0  0  0  0  0  0
   -6.9642   -9.7888   12.2103 C   0  0  0  0  0  0  0  0  0  0  0  0
   -7.4022   -9.9097   13.6169 N   0  0  0  0  0  0  0  0  0  0  0  0
   -8.0943   -8.7448   14.0375 C   0  0  0  0  0  0  0  0  0  0  0  0
   -9.2580   -8.5352   13.9817 O   0  0  0  0  0  0  0  0  0  0  0  0
   -7.1786   -7.1711   14.6654 C   0  0  0  0  0  0  0  0  0  0  0  0
   -6.6947   -7.0641   16.0085 O   0  0  0  0  0  0  0  0  0  0  0  0
   -7.8340   -5.6508   14.6842 C   0  0  0  0  0  0  0  0  0  0  0  0
   -9.1001   -5.0982   14.6150 C   0  0  0  0  0  0  0  0  0  0  0  0
   -8.9324   -3.7500   14.7697 N   0  0  0  0  0  0  0  0  0  0  0  0
   -7.6278   -3.5328   15.1001 C   0  0  0  0  0  0  0  0  0  0  0  0
   -6.9297   -4.6426   15.0408 N   0  0  0  0  0  0  0  0  0  0  0  0
   -7.9364  -11.2777   13.0797 C   0  0  0  0  0  0  0  0  0  0  0  0
   -7.4121  -18.4140   14.2093 H   0  0  0  0  0  0  0  0  0  0  0  0
   -7.3232  -17.4309   15.6899 H   0  0  0  0  0  0  0  0  0  0  0  0
   -5.8551  -17.6744   14.7428 H   0  0  0  0  0  0  0  0  0  0  0  0
   -7.6962  -16.4315   11.9602 H   0  0  0  0  0  0  0  0  0  0  0  0
   -6.0580  -18.2495   12.3384 H   0  0  0  0  0  0  0  0  0  0  0  0
   -5.4903  -17.1541   11.0859 H   0  0  0  0  0  0  0  0  0  0  0  0
   -4.8084  -17.0536   12.7159 H   0  0  0  0  0  0  0  0  0  0  0  0
   -7.7409  -13.9994   13.1748 H   0  0  0  0  0  0  0  0  0  0  0  0
   -7.7688  -12.3828   11.2448 H   0  0  0  0  0  0  0  0  0  0  0  0
   -5.8772  -11.0844   10.7245 H   0  0  0  0  0  0  0  0  0  0  0  0
   -5.2422  -11.1601   12.3585 H   0  0  0  0  0  0  0  0  0  0  0  0
   -7.6928   -9.3109   11.5633 H   0  0  0  0  0  0  0  0  0  0  0  0
   -6.1871   -9.0075   12.2365 H   0  0  0  0  0  0  0  0  0  0  0  0
   -6.4383   -7.0082   13.8610 H   0  0  0  0  0  0  0  0  0  0  0  0
   -6.3809   -6.1417   16.1163 H   0  0  0  0  0  0  0  0  0  0  0  0
  -10.0799   -5.5199   14.4525 H   0  0  0  0  0  0  0  0  0  0  0  0
   -9.6549   -3.0447   14.7221 H   0  0  0  0  0  0  0  0  0  0  0  0
   -7.2437   -2.5488   15.3378 H   0  0  0  0  0  0  0  0  0  0  0  0
   -8.9339  -11.0261   12.6785 H   0  0  0  0  0  0  0  0  0  0  0  0
   -8.4043  -11.7903   13.9247 H   0  0  0  0  0  0  0  0  0  0  0  0
  1  2  1  0
  2  3  1  0
  3  4  1  0
  3  5  1  0
  5  6  2  0
  5  7  1  0
  7  8  1  0
  8  9  1  0
  9 10  1  0
 10 11  1  0
 11 12  1  0
 12 13  2  0
 12 14  1  0
 14 15  1  0
 14 16  1  0
 16 17  2  0
 17 18  1  0
 18 19  1  0
 19 20  2  0
 11 21  1  0
 21  8  1  0
 20 16  1  0
  1 22  1  0
  1 23  1  0
  1 24  1  0
  3 25  1  0
  4 26  1  0
  4 27  1  0
  4 28  1  0
  7 29  1  0
  8 30  1  0
  9 31  1  0
  9 32  1  0
 10 33  1  0
 10 34  1  0
 14 35  1  0
 15 36  1  0
 17 37  1  0
 18 38  1  0
 19 39  1  0
 21 40  1  0
 21 41  1  0
M  END
>  <Energy>  (757) 
267.131678814574

>  <compound_id>  (757) 
46383

>  <target_id>  (757) 
1

>  <reference_id>  (757) 
99

>  <inspiration_ids>  (757) 
[99, 64]

>  <energy_score>  (757) 
131.9242975441132

>  <distance_score>  (757) 
13.91738444990058

>  <path>  (757) 
/opt/xchem-fragalysis-2/maxwin/BulkDock/SCRATCH/511025/C46383-P99/C46383-P99.minimised.mol

>  <scratch_subdir>  (757) 
/opt/xchem-fragalysis-2/maxwin/BulkDock/SCRATCH/511025/C46383-P99

>  <fragmenstein_runtime>  (757) 
30.750975847244263

>  <fragmenstein_outcome>  (757) 
too moved

>  <fragmenstein_mode>  (757) 
expansion

>  <fragmenstein_error>  (757) 


$$$$
C46383-P64
     RDKit          3D

 41 42  0  0  0  0  0  0  0  0999 V2000
   -7.9784  -12.7198   18.5262 C   0  0  0  0  0  0  0  0  0  0  0  0
   -7.2527  -11.5378   18.4677 O   0  0  0  0  0  0  0  0  0  0  0  0
   -5.9629  -11.3649   17.7883 C   0  0  0  0  0  0  0  0  0  0  0  0
   -4.1704  -11.3883   18.4238 C   0  0  0  0  0  0  0  0  0  0  0  0
   -6.0744  -10.0969   16.6113 C   0  0  0  0  0  0  0  0  0  0  0  0
   -5.4887  -10.4005   15.6788 O   0  0  0  0  0  0  0  0  0  0  0  0
   -6.9339   -8.5836   16.6166 N   0  0  0  0  0  0  0  0  0  0  0  0
   -7.2191   -7.2819   15.2329 C   0  0  0  0  0  0  0  0  0  0  0  0
   -6.4889   -6.2894   14.2661 C   0  0  0  0  0  0  0  0  0  0  0  0
   -5.9483   -7.2229   13.1059 C   0  0  0  0  0  0  0  0  0  0  0  0
   -6.2309   -8.7693   13.0576 N   0  0  0  0  0  0  0  0  0  0  0  0
   -6.0584   -9.2471   11.7514 C   0  0  0  0  0  0  0  0  0  0  0  0
   -6.8366   -9.3566   10.8611 O   0  0  0  0  0  0  0  0  0  0  0  0
   -4.5909   -9.7660   11.6598 C   0  0  0  0  0  0  0  0  0  0  0  0
   -3.5443   -8.8309   11.7568 O   0  0  0  0  0  0  0  0  0  0  0  0
   -4.3754  -10.8168   10.5974 C   0  0  0  0  0  0  0  0  0  0  0  0
   -3.2072  -11.1587    9.9452 C   0  0  0  0  0  0  0  0  0  0  0  0
   -3.5460  -12.1413    9.0608 N   0  0  0  0  0  0  0  0  0  0  0  0
   -4.8317  -12.4985    9.3259 C   0  0  0  0  0  0  0  0  0  0  0  0
   -5.3412  -11.7496   10.2729 N   0  0  0  0  0  0  0  0  0  0  0  0
   -7.4775   -8.3457   13.8050 C   0  0  0  0  0  0  0  0  0  0  0  0
   -7.7266  -13.2889   19.4034 H   0  0  0  0  0  0  0  0  0  0  0  0
   -7.8386  -13.2038   17.5810 H   0  0  0  0  0  0  0  0  0  0  0  0
   -9.0405  -12.5021   18.6354 H   0  0  0  0  0  0  0  0  0  0  0  0
   -5.7365  -12.4079   17.6831 H   0  0  0  0  0  0  0  0  0  0  0  0
   -3.5907  -10.5427   17.9985 H   0  0  0  0  0  0  0  0  0  0  0  0
   -3.4470  -12.1112   18.0426 H   0  0  0  0  0  0  0  0  0  0  0  0
   -4.1189  -11.4640   19.5187 H   0  0  0  0  0  0  0  0  0  0  0  0
   -7.3192   -8.4393   17.5353 H   0  0  0  0  0  0  0  0  0  0  0  0
   -7.9943   -6.5781   15.5571 H   0  0  0  0  0  0  0  0  0  0  0  0
   -7.2017   -5.5725   13.8447 H   0  0  0  0  0  0  0  0  0  0  0  0
   -5.7390   -5.6328   14.7347 H   0  0  0  0  0  0  0  0  0  0  0  0
   -6.0530   -6.7713   12.1329 H   0  0  0  0  0  0  0  0  0  0  0  0
   -4.8525   -7.1678   13.1313 H   0  0  0  0  0  0  0  0  0  0  0  0
   -4.4873  -10.3775   12.5730 H   0  0  0  0  0  0  0  0  0  0  0  0
   -3.4687   -8.6383   12.7043 H   0  0  0  0  0  0  0  0  0  0  0  0
   -2.2038  -10.7647   10.0146 H   0  0  0  0  0  0  0  0  0  0  0  0
   -2.9329  -12.5906    8.3957 H   0  0  0  0  0  0  0  0  0  0  0  0
   -5.3390  -13.3035    8.8120 H   0  0  0  0  0  0  0  0  0  0  0  0
   -8.4388   -8.6077   13.3608 H   0  0  0  0  0  0  0  0  0  0  0  0
   -7.6583   -9.3116   14.3233 H   0  0  0  0  0  0  0  0  0  0  0  0
  1  2  1  0
  2  3  1  0
  3  4  1  0
  3  5  1  0
  5  6  2  0
  5  7  1  0
  7  8  1  0
  8  9  1  0
  9 10  1  0
 10 11  1  0
 11 12  1  0
 12 13  2  0
 12 14  1  0
 14 15  1  0
 14 16  1  0
 16 17  2  0
 17 18  1  0
 18 19  1  0
 19 20  2  0
 11 21  1  0
 21  8  1  0
 20 16  1  0
  1 22  1  0
  1 23  1  0
  1 24  1  0
  3 25  1  0
  4 26  1  0
  4 27  1  0
  4 28  1  0
  7 29  1  0
  8 30  1  0
  9 31  1  0
  9 32  1  0
 10 33  1  0
 10 34  1  0
 14 35  1  0
 15 36  1  0
 17 37  1  0
 18 38  1  0
 19 39  1  0
 21 40  1  0
 21 41  1  0
M  END
>  <Energy>  (758) 
457.20766616324863

>  <compound_id>  (758) 
46383

>  <target_id>  (758) 
1

>  <reference_id>  (758) 
64

>  <inspiration_ids>  (758) 
[99, 64]

>  <energy_score>  (758) 
322.0002848927826

>  <distance_score>  (758) 
13.45050809498313

>  <path>  (758) 
/opt/xchem-fragalysis-2/maxwin/BulkDock/SCRATCH/511025/C46383-P64/C46383-P64.minimised.mol

>  <scratch_subdir>  (758) 
/opt/xchem-fragalysis-2/maxwin/BulkDock/SCRATCH/511025/C46383-P64

>  <fragmenstein_runtime>  (758) 
43.913925647735596

>  <fragmenstein_outcome>  (758) 
too moved

>  <fragmenstein_mode>  (758) 
expansion

>  <fragmenstein_error>  (758) 


$$$$
C18091-P99
     RDKit          3D

 38 39  0  0  0  0  0  0  0  0999 V2000
  -10.4045   -9.4681    7.7750 O   0  0  0  0  0  0  0  0  0  0  0  0
   -9.3019   -9.2058    8.2400 C   0  0  0  0  0  0  0  0  0  0  0  0
   -8.5588  -10.2090    9.1158 C   0  0  0  0  0  0  0  0  0  0  0  0
   -8.9364  -12.0117    8.7883 S   0  0  0  0  0  0  0  0  0  0  0  0
  -10.2423  -12.1748    9.9954 C   0  0  0  0  0  0  0  0  0  0  0  0
  -10.6768  -13.4443   10.6664 C   0  0  0  0  0  0  0  0  0  0  0  0
  -10.5118  -13.7581   11.9507 N   0  0  0  0  0  0  0  0  0  0  0  0
  -11.1109  -14.9795   12.1387 C   0  0  0  0  0  0  0  0  0  0  0  0
  -11.6505  -15.4178   10.9499 C   0  0  0  0  0  0  0  0  0  0  0  0
  -11.4358  -14.4096   10.0491 N   0  0  0  0  0  0  0  0  0  0  0  0
   -8.4111   -7.7967    8.1829 N   0  0  0  0  0  0  0  0  0  0  0  0
   -8.8698   -5.9792    7.4571 C   0  0  0  0  0  0  0  0  0  0  0  0
   -8.5162   -5.1069    6.2456 C   0  0  0  0  0  0  0  0  0  0  0  0
   -8.0550   -3.7653    6.7759 C   0  0  0  0  0  0  0  0  0  0  0  0
   -8.9314   -3.1860    7.7883 N   0  0  0  0  0  0  0  0  0  0  0  0
  -10.0648   -2.5676    7.1690 C   0  0  0  0  0  0  0  0  0  0  0  0
  -11.1453   -3.0144    6.8963 O   0  0  0  0  0  0  0  0  0  0  0  0
   -9.7415   -1.0811    6.9056 C   0  0  0  0  0  0  0  0  0  0  0  0
   -8.3682   -0.7307    7.0407 O   0  0  0  0  0  0  0  0  0  0  0  0
   -8.7662   -4.5553    8.3951 C   0  0  0  0  0  0  0  0  0  0  0  0
   -7.4785  -10.0789    9.0195 H   0  0  0  0  0  0  0  0  0  0  0  0
   -8.8866   -9.9239   10.1165 H   0  0  0  0  0  0  0  0  0  0  0  0
   -9.8575  -11.5835   10.8291 H   0  0  0  0  0  0  0  0  0  0  0  0
  -11.1169  -11.7226    9.5185 H   0  0  0  0  0  0  0  0  0  0  0  0
  -11.0638  -15.4758   13.0968 H   0  0  0  0  0  0  0  0  0  0  0  0
  -12.1299  -16.3335   10.6389 H   0  0  0  0  0  0  0  0  0  0  0  0
  -11.6823  -14.4139    9.0682 H   0  0  0  0  0  0  0  0  0  0  0  0
   -7.4932   -7.9512    8.6052 H   0  0  0  0  0  0  0  0  0  0  0  0
   -7.7943   -5.9414    7.5494 H   0  0  0  0  0  0  0  0  0  0  0  0
   -7.5857   -5.3949    5.7470 H   0  0  0  0  0  0  0  0  0  0  0  0
   -9.4089   -4.9393    5.6345 H   0  0  0  0  0  0  0  0  0  0  0  0
   -8.0165   -3.0776    5.9178 H   0  0  0  0  0  0  0  0  0  0  0  0
   -7.0109   -3.7759    7.1338 H   0  0  0  0  0  0  0  0  0  0  0  0
  -10.0481   -0.8394    5.8838 H   0  0  0  0  0  0  0  0  0  0  0  0
  -10.3214   -0.4757    7.6087 H   0  0  0  0  0  0  0  0  0  0  0  0
   -8.0907   -1.1817    7.8614 H   0  0  0  0  0  0  0  0  0  0  0  0
   -7.8112   -4.5902    8.9190 H   0  0  0  0  0  0  0  0  0  0  0  0
   -9.4796   -4.5808    9.2023 H   0  0  0  0  0  0  0  0  0  0  0  0
  1  2  2  0
  2  3  1  0
  3  4  1  0
  4  5  1  0
  5  6  1  0
  6  7  2  0
  7  8  1  0
  8  9  2  0
  9 10  1  0
  2 11  1  0
 11 12  1  0
 12 13  1  0
 13 14  1  0
 14 15  1  0
 15 16  1  0
 16 17  2  0
 16 18  1  0
 18 19  1  0
 15 20  1  0
 10  6  1  0
 20 12  1  0
  3 21  1  0
  3 22  1  0
  5 23  1  0
  5 24  1  0
  8 25  1  0
  9 26  1  0
 10 27  1  0
 11 28  1  0
 12 29  1  0
 13 30  1  0
 13 31  1  0
 14 32  1  0
 14 33  1  0
 18 34  1  0
 18 35  1  0
 19 36  1  0
 20 37  1  0
 20 38  1  0
M  END
>  <Energy>  (759) 
313.7099775832703

>  <compound_id>  (759) 
18091

>  <target_id>  (759) 
1

>  <reference_id>  (759) 
99

>  <inspiration_ids>  (759) 
[99, 64]

>  <energy_score>  (759) 
229.9898815827553

>  <distance_score>  (759) 
12.250628774661765

>  <path>  (759) 
/opt/xchem-fragalysis-2/maxwin/BulkDock/SCRATCH/511025/C18091-P99/C18091-P99.minimised.mol

>  <scratch_subdir>  (759) 
/opt/xchem-fragalysis-2/maxwin/BulkDock/SCRATCH/511025/C18091-P99

>  <fragmenstein_runtime>  (759) 
21.80507779121399

>  <fragmenstein_outcome>  (759) 
too moved

>  <fragmenstein_mode>  (759) 
expansion

>  <fragmenstein_error>  (759) 


$$$$
C18091-P64
     RDKit          3D

 38 39  0  0  0  0  0  0  0  0999 V2000
   -9.2827   -9.3634   12.5587 O   0  0  0  0  0  0  0  0  0  0  0  0
   -8.2789   -9.6170   13.1879 C   0  0  0  0  0  0  0  0  0  0  0  0
   -8.3995  -11.2183   14.1953 C   0  0  0  0  0  0  0  0  0  0  0  0
   -9.0722  -13.4405   14.2035 S   0  0  0  0  0  0  0  0  0  0  0  0
   -7.7923  -15.2530   15.1505 C   0  0  0  0  0  0  0  0  0  0  0  0
   -8.2556  -16.4258   16.7108 C   0  0  0  0  0  0  0  0  0  0  0  0
   -8.2228  -17.7217   16.9667 N   0  0  0  0  0  0  0  0  0  0  0  0
   -9.6627  -18.5094   17.2506 C   0  0  0  0  0  0  0  0  0  0  0  0
  -10.7321  -17.5643   17.7187 C   0  0  0  0  0  0  0  0  0  0  0  0
   -9.3608  -16.2352   17.7209 N   0  0  0  0  0  0  0  0  0  0  0  0
   -6.7014   -8.8044   13.1980 N   0  0  0  0  0  0  0  0  0  0  0  0
   -6.1124   -7.5913   12.2885 C   0  0  0  0  0  0  0  0  0  0  0  0
   -5.3459   -7.9912   11.0153 C   0  0  0  0  0  0  0  0  0  0  0  0
   -6.3569   -7.5811    9.9739 C   0  0  0  0  0  0  0  0  0  0  0  0
   -6.1237   -5.8535    9.9631 N   0  0  0  0  0  0  0  0  0  0  0  0
   -7.3526   -5.0683    9.0244 C   0  0  0  0  0  0  0  0  0  0  0  0
   -8.4351   -4.6263    9.3795 O   0  0  0  0  0  0  0  0  0  0  0  0
   -7.0938   -4.6875    7.4130 C   0  0  0  0  0  0  0  0  0  0  0  0
   -6.2394   -3.6226    7.0283 O   0  0  0  0  0  0  0  0  0  0  0  0
   -6.0068   -6.1359   11.8517 C   0  0  0  0  0  0  0  0  0  0  0  0
   -9.4440  -11.0253   14.3281 H   0  0  0  0  0  0  0  0  0  0  0  0
   -8.0092  -11.6605   13.2650 H   0  0  0  0  0  0  0  0  0  0  0  0
   -7.0134  -14.7544   15.7168 H   0  0  0  0  0  0  0  0  0  0  0  0
   -7.5155  -15.9478   14.3749 H   0  0  0  0  0  0  0  0  0  0  0  0
   -9.5399  -19.5903   17.4148 H   0  0  0  0  0  0  0  0  0  0  0  0
  -11.2653  -17.5485   18.6320 H   0  0  0  0  0  0  0  0  0  0  0  0
   -9.1878  -15.8030   18.6275 H   0  0  0  0  0  0  0  0  0  0  0  0
   -6.0513   -9.3182   13.7624 H   0  0  0  0  0  0  0  0  0  0  0  0
   -5.1885   -7.6577   12.8442 H   0  0  0  0  0  0  0  0  0  0  0  0
   -4.4923   -7.3688   10.8763 H   0  0  0  0  0  0  0  0  0  0  0  0
   -4.8882   -8.9809   10.9694 H   0  0  0  0  0  0  0  0  0  0  0  0
   -7.3495   -8.0111    9.9192 H   0  0  0  0  0  0  0  0  0  0  0  0
   -6.0836   -8.1017    9.0480 H   0  0  0  0  0  0  0  0  0  0  0  0
   -7.0442   -5.4865    6.6768 H   0  0  0  0  0  0  0  0  0  0  0  0
   -8.0911   -4.3029    7.1354 H   0  0  0  0  0  0  0  0  0  0  0  0
   -6.6395   -2.8144    7.3948 H   0  0  0  0  0  0  0  0  0  0  0  0
   -6.7681   -5.5813   12.3983 H   0  0  0  0  0  0  0  0  0  0  0  0
   -5.0962   -5.6349   12.1295 H   0  0  0  0  0  0  0  0  0  0  0  0
  1  2  2  0
  2  3  1  0
  3  4  1  0
  4  5  1  0
  5  6  1  0
  6  7  2  0
  7  8  1  0
  8  9  2  0
  9 10  1  0
  2 11  1  0
 11 12  1  0
 12 13  1  0
 13 14  1  0
 14 15  1  0
 15 16  1  0
 16 17  2  0
 16 18  1  0
 18 19  1  0
 15 20  1  0
 10  6  1  0
 20 12  1  0
  3 21  1  0
  3 22  1  0
  5 23  1  0
  5 24  1  0
  8 25  1  0
  9 26  1  0
 10 27  1  0
 11 28  1  0
 12 29  1  0
 13 30  1  0
 13 31  1  0
 14 32  1  0
 14 33  1  0
 18 34  1  0
 18 35  1  0
 19 36  1  0
 20 37  1  0
 20 38  1  0
M  END
>  <Energy>  (760) 
812.74257739691973

>  <compound_id>  (760) 
18091

>  <target_id>  (760) 
1

>  <reference_id>  (760) 
64

>  <inspiration_ids>  (760) 
[99, 64]

>  <energy_score>  (760) 
729.0224813964178

>  <distance_score>  (760) 
9.019326557627439

>  <path>  (760) 
/opt/xchem-fragalysis-2/maxwin/BulkDock/SCRATCH/511025/C18091-P64/C18091-P64.minimised.mol

>  <scratch_subdir>  (760) 
/opt/xchem-fragalysis-2/maxwin/BulkDock/SCRATCH/511025/C18091-P64

>  <fragmenstein_runtime>  (760) 
17.903184175491333

>  <fragmenstein_outcome>  (760) 
too moved

>  <fragmenstein_mode>  (760) 
expansion

>  <fragmenstein_error>  (760) 


$$$$
C18095-P99
     RDKit          3D

 41 42  0  0  0  0  0  0  0  0999 V2000
   -7.9667   -9.0566   13.9477 C   0  0  0  0  0  0  0  0  0  0  0  0
   -6.9640  -10.0673   14.1224 N   0  0  0  0  0  0  0  0  0  0  0  0
   -6.7766  -10.5031   16.0541 C   0  0  0  0  0  0  0  0  0  0  0  0
   -6.0038   -9.9673   16.8009 O   0  0  0  0  0  0  0  0  0  0  0  0
   -7.8405  -12.0726   17.0974 C   0  0  0  0  0  0  0  0  0  0  0  0
   -8.7760  -13.2572   18.9906 S   0  0  0  0  0  0  0  0  0  0  0  0
   -9.5545  -15.6205   19.0165 C   0  0  0  0  0  0  0  0  0  0  0  0
  -11.0769  -17.0937   18.9819 C   0  0  0  0  0  0  0  0  0  0  0  0
  -11.8856  -18.2351   19.8177 N   0  0  0  0  0  0  0  0  0  0  0  0
  -12.5896  -19.5767   19.3466 C   0  0  0  0  0  0  0  0  0  0  0  0
  -12.6221  -19.2402   18.0837 C   0  0  0  0  0  0  0  0  0  0  0  0
  -11.3108  -17.8831   17.8361 N   0  0  0  0  0  0  0  0  0  0  0  0
   -5.8600   -8.8199   12.9444 C   0  0  0  0  0  0  0  0  0  0  0  0
   -4.9169   -8.8296   11.3545 C   0  0  0  0  0  0  0  0  0  0  0  0
   -6.0512   -8.0254   10.1487 C   0  0  0  0  0  0  0  0  0  0  0  0
   -5.7897   -6.6298   10.2056 N   0  0  0  0  0  0  0  0  0  0  0  0
   -6.9108   -5.4441    9.3764 C   0  0  0  0  0  0  0  0  0  0  0  0
   -7.8310   -4.9790    9.9626 O   0  0  0  0  0  0  0  0  0  0  0  0
   -6.8756   -4.7467    7.6728 C   0  0  0  0  0  0  0  0  0  0  0  0
   -6.0656   -3.7512    7.0728 O   0  0  0  0  0  0  0  0  0  0  0  0
   -5.7275   -7.1403   11.7293 C   0  0  0  0  0  0  0  0  0  0  0  0
   -8.8470   -9.4528   14.4609 H   0  0  0  0  0  0  0  0  0  0  0  0
   -8.4308   -9.1731   12.9621 H   0  0  0  0  0  0  0  0  0  0  0  0
   -7.7169   -8.0773   14.2924 H   0  0  0  0  0  0  0  0  0  0  0  0
   -7.8398  -13.0230   16.5928 H   0  0  0  0  0  0  0  0  0  0  0  0
   -7.0204  -12.0602   17.8584 H   0  0  0  0  0  0  0  0  0  0  0  0
   -8.9160  -15.9317   19.8223 H   0  0  0  0  0  0  0  0  0  0  0  0
   -8.9025  -15.9523   18.1730 H   0  0  0  0  0  0  0  0  0  0  0  0
  -13.0388  -20.3091   19.9991 H   0  0  0  0  0  0  0  0  0  0  0  0
  -13.1428  -19.4874   17.1721 H   0  0  0  0  0  0  0  0  0  0  0  0
  -10.4265  -18.1478   17.4529 H   0  0  0  0  0  0  0  0  0  0  0  0
   -6.8674   -8.4700   12.7431 H   0  0  0  0  0  0  0  0  0  0  0  0
   -3.9978   -8.3377   11.6834 H   0  0  0  0  0  0  0  0  0  0  0  0
   -4.4141   -9.6815   10.8853 H   0  0  0  0  0  0  0  0  0  0  0  0
   -7.1154   -8.2190   10.2201 H   0  0  0  0  0  0  0  0  0  0  0  0
   -5.8689   -8.3862    9.1476 H   0  0  0  0  0  0  0  0  0  0  0  0
   -7.2427   -5.4142    6.8807 H   0  0  0  0  0  0  0  0  0  0  0  0
   -7.8315   -4.1922    7.7656 H   0  0  0  0  0  0  0  0  0  0  0  0
   -6.3432   -2.8911    7.4336 H   0  0  0  0  0  0  0  0  0  0  0  0
   -6.2450   -6.2684   12.0748 H   0  0  0  0  0  0  0  0  0  0  0  0
   -4.7599   -6.8233   12.0269 H   0  0  0  0  0  0  0  0  0  0  0  0
  1  2  1  0
  2  3  1  0
  3  4  2  0
  3  5  1  0
  5  6  1  0
  6  7  1  0
  7  8  1  0
  8  9  2  0
  9 10  1  0
 10 11  2  0
 11 12  1  0
  2 13  1  0
 13 14  1  0
 14 15  1  0
 15 16  1  0
 16 17  1  0
 17 18  2  0
 17 19  1  0
 19 20  1  0
 16 21  1  0
 12  8  1  0
 21 13  1  0
  1 22  1  0
  1 23  1  0
  1 24  1  0
  5 25  1  0
  5 26  1  0
  7 27  1  0
  7 28  1  0
 10 29  1  0
 11 30  1  0
 12 31  1  0
 13 32  1  0
 14 33  1  0
 14 34  1  0
 15 35  1  0
 15 36  1  0
 19 37  1  0
 19 38  1  0
 20 39  1  0
 21 40  1  0
 21 41  1  0
M  END
>  <Energy>  (761) 
1565.3405624408947

>  <compound_id>  (761) 
18095

>  <target_id>  (761) 
1

>  <reference_id>  (761) 
99

>  <inspiration_ids>  (761) 
[99, 64]

>  <energy_score>  (761) 
1462.4276790331828

>  <distance_score>  (761) 
8.287490957536281

>  <path>  (761) 
/opt/xchem-fragalysis-2/maxwin/BulkDock/SCRATCH/511025/C18095-P99/C18095-P99.minimised.mol

>  <scratch_subdir>  (761) 
/opt/xchem-fragalysis-2/maxwin/BulkDock/SCRATCH/511025/C18095-P99

>  <fragmenstein_runtime>  (761) 
29.013221740722656

>  <fragmenstein_outcome>  (761) 
too moved

>  <fragmenstein_mode>  (761) 
expansion

>  <fragmenstein_error>  (761) 


$$$$
C18095-P64
     RDKit          3D

 41 42  0  0  0  0  0  0  0  0999 V2000
   -9.0415   -9.9002   14.1795 C   0  0  0  0  0  0  0  0  0  0  0  0
   -7.9188  -10.8195   14.3808 N   0  0  0  0  0  0  0  0  0  0  0  0
   -7.7861  -11.5802   16.3114 C   0  0  0  0  0  0  0  0  0  0  0  0
   -7.0524  -10.8161   17.0053 O   0  0  0  0  0  0  0  0  0  0  0  0
   -8.2273  -13.3386   17.5114 C   0  0  0  0  0  0  0  0  0  0  0  0
   -8.8847  -15.8663   18.0521 S   0  0  0  0  0  0  0  0  0  0  0  0
  -10.9416  -17.5056   17.9664 C   0  0  0  0  0  0  0  0  0  0  0  0
  -12.1671  -19.0376   18.7351 C   0  0  0  0  0  0  0  0  0  0  0  0
  -13.3636  -19.4052   18.0782 N   0  0  0  0  0  0  0  0  0  0  0  0
  -14.1192  -20.3941   18.6772 C   0  0  0  0  0  0  0  0  0  0  0  0
  -13.4776  -20.8919   19.7511 C   0  0  0  0  0  0  0  0  0  0  0  0
  -12.3128  -20.1752   19.8154 N   0  0  0  0  0  0  0  0  0  0  0  0
   -6.9554   -9.2062   13.4201 C   0  0  0  0  0  0  0  0  0  0  0  0
   -5.1437   -8.7982   12.5638 C   0  0  0  0  0  0  0  0  0  0  0  0
   -5.0907   -8.1403   10.6941 C   0  0  0  0  0  0  0  0  0  0  0  0
   -6.4276   -7.4946   10.3352 N   0  0  0  0  0  0  0  0  0  0  0  0
   -6.8047   -5.8120    9.5611 C   0  0  0  0  0  0  0  0  0  0  0  0
   -6.9451   -4.9612   10.3757 O   0  0  0  0  0  0  0  0  0  0  0  0
   -7.2141   -5.0961    7.8585 C   0  0  0  0  0  0  0  0  0  0  0  0
   -8.4169   -4.3006    7.9118 O   0  0  0  0  0  0  0  0  0  0  0  0
   -6.3818   -7.9465   11.7855 C   0  0  0  0  0  0  0  0  0  0  0  0
   -9.9456  -10.1450   14.6732 H   0  0  0  0  0  0  0  0  0  0  0  0
   -9.2963  -10.0227   13.1180 H   0  0  0  0  0  0  0  0  0  0  0  0
   -8.8470   -8.8476   14.2881 H   0  0  0  0  0  0  0  0  0  0  0  0
   -8.0411  -12.9967   18.5402 H   0  0  0  0  0  0  0  0  0  0  0  0
   -7.3590  -13.7947   17.0136 H   0  0  0  0  0  0  0  0  0  0  0  0
  -10.1912  -18.2894   17.5872 H   0  0  0  0  0  0  0  0  0  0  0  0
  -11.5149  -17.4447   17.0395 H   0  0  0  0  0  0  0  0  0  0  0  0
  -15.0662  -20.6970   18.2545 H   0  0  0  0  0  0  0  0  0  0  0  0
  -13.7078  -21.6694   20.4617 H   0  0  0  0  0  0  0  0  0  0  0  0
  -11.6608  -20.3528   20.5644 H   0  0  0  0  0  0  0  0  0  0  0  0
   -6.1636   -9.9267   13.7395 H   0  0  0  0  0  0  0  0  0  0  0  0
   -4.4129   -8.1561   13.0483 H   0  0  0  0  0  0  0  0  0  0  0  0
   -4.5597   -9.6715   12.6204 H   0  0  0  0  0  0  0  0  0  0  0  0
   -4.9307   -9.0799   10.1983 H   0  0  0  0  0  0  0  0  0  0  0  0
   -4.4033   -7.3302   10.7037 H   0  0  0  0  0  0  0  0  0  0  0  0
   -6.4785   -4.3387    7.5723 H   0  0  0  0  0  0  0  0  0  0  0  0
   -7.4467   -5.7102    6.9930 H   0  0  0  0  0  0  0  0  0  0  0  0
   -8.4300   -3.8358    8.7671 H   0  0  0  0  0  0  0  0  0  0  0  0
   -7.2971   -7.6516   12.1530 H   0  0  0  0  0  0  0  0  0  0  0  0
   -5.8575   -6.8940   11.8630 H   0  0  0  0  0  0  0  0  0  0  0  0
  1  2  1  0
  2  3  1  0
  3  4  2  0
  3  5  1  0
  5  6  1  0
  6  7  1  0
  7  8  1  0
  8  9  2  0
  9 10  1  0
 10 11  2  0
 11 12  1  0
  2 13  1  0
 13 14  1  0
 14 15  1  0
 15 16  1  0
 16 17  1  0
 17 18  2  0
 17 19  1  0
 19 20  1  0
 16 21  1  0
 12  8  1  0
 21 13  1  0
  1 22  1  0
  1 23  1  0
  1 24  1  0
  5 25  1  0
  5 26  1  0
  7 27  1  0
  7 28  1  0
 10 29  1  0
 11 30  1  0
 12 31  1  0
 13 32  1  0
 14 33  1  0
 14 34  1  0
 15 35  1  0
 15 36  1  0
 19 37  1  0
 19 38  1  0
 20 39  1  0
 21 40  1  0
 21 41  1  0
M  END
>  <Energy>  (762) 
1993.263714867659

>  <compound_id>  (762) 
18095

>  <target_id>  (762) 
1

>  <reference_id>  (762) 
64

>  <inspiration_ids>  (762) 
[99, 64]

>  <energy_score>  (762) 
1890.350831459903

>  <distance_score>  (762) 
7.858120101856828

>  <path>  (762) 
/opt/xchem-fragalysis-2/maxwin/BulkDock/SCRATCH/511025/C18095-P64/C18095-P64.minimised.mol

>  <scratch_subdir>  (762) 
/opt/xchem-fragalysis-2/maxwin/BulkDock/SCRATCH/511025/C18095-P64

>  <fragmenstein_runtime>  (762) 
21.534252166748047

>  <fragmenstein_outcome>  (762) 
too moved

>  <fragmenstein_mode>  (762) 
expansion

>  <fragmenstein_error>  (762) 


$$$$
C46384-P99
     RDKit          3D

 44 45  0  0  0  0  0  0  0  0999 V2000
   -9.7584  -16.2709   11.2104 C   0  0  0  0  0  0  0  0  0  0  0  0
   -9.3781  -16.1707   12.6939 C   0  0  0  0  0  0  0  0  0  0  0  0
   -8.5455  -17.4296   13.0931 C   0  0  0  0  0  0  0  0  0  0  0  0
   -8.6414  -14.8220   12.9847 C   0  0  0  0  0  0  0  0  0  0  0  0
   -7.4362  -14.7358   12.2724 O   0  0  0  0  0  0  0  0  0  0  0  0
   -9.5294  -13.4939   13.1797 C   0  0  0  0  0  0  0  0  0  0  0  0
  -10.7184  -13.5949   13.2812 O   0  0  0  0  0  0  0  0  0  0  0  0
   -8.6617  -12.3300   13.3006 N   0  0  0  0  0  0  0  0  0  0  0  0
   -8.9589  -10.9482   13.6817 C   0  0  0  0  0  0  0  0  0  0  0  0
   -9.4930  -10.0943   12.6340 C   0  0  0  0  0  0  0  0  0  0  0  0
   -8.1849   -9.1488   12.4871 C   0  0  0  0  0  0  0  0  0  0  0  0
   -8.3394   -8.5173   13.9749 N   0  0  0  0  0  0  0  0  0  0  0  0
   -7.6384   -7.0266   14.6711 C   0  0  0  0  0  0  0  0  0  0  0  0
   -6.6105   -6.8517   15.2572 O   0  0  0  0  0  0  0  0  0  0  0  0
   -8.6139   -5.5268   14.5835 C   0  0  0  0  0  0  0  0  0  0  0  0
  -10.0229   -5.4683   14.5018 O   0  0  0  0  0  0  0  0  0  0  0  0
   -8.1051   -4.5046   15.5746 C   0  0  0  0  0  0  0  0  0  0  0  0
   -8.5575   -4.2346   16.8475 C   0  0  0  0  0  0  0  0  0  0  0  0
   -7.8801   -3.1156   17.2406 N   0  0  0  0  0  0  0  0  0  0  0  0
   -7.0577   -2.7423   16.2233 C   0  0  0  0  0  0  0  0  0  0  0  0
   -7.1627   -3.5601   15.2052 N   0  0  0  0  0  0  0  0  0  0  0  0
   -7.8381   -9.9043   14.0690 C   0  0  0  0  0  0  0  0  0  0  0  0
   -8.8761  -16.3307   10.5650 H   0  0  0  0  0  0  0  0  0  0  0  0
  -10.3488  -15.4025   10.8999 H   0  0  0  0  0  0  0  0  0  0  0  0
  -10.3625  -17.1669   11.0311 H   0  0  0  0  0  0  0  0  0  0  0  0
  -10.3281  -16.1718   13.2305 H   0  0  0  0  0  0  0  0  0  0  0  0
   -7.9196  -17.2822   13.9765 H   0  0  0  0  0  0  0  0  0  0  0  0
   -7.8609  -17.7031   12.2816 H   0  0  0  0  0  0  0  0  0  0  0  0
   -9.2107  -18.2827   13.2618 H   0  0  0  0  0  0  0  0  0  0  0  0
   -8.2846  -14.9352   14.0131 H   0  0  0  0  0  0  0  0  0  0  0  0
   -7.6680  -14.6349   11.3326 H   0  0  0  0  0  0  0  0  0  0  0  0
   -7.7095  -12.6004   13.0685 H   0  0  0  0  0  0  0  0  0  0  0  0
   -9.7447  -11.0371   14.4230 H   0  0  0  0  0  0  0  0  0  0  0  0
  -10.3327   -9.5736   13.1019 H   0  0  0  0  0  0  0  0  0  0  0  0
  -10.0242  -10.5909   11.8207 H   0  0  0  0  0  0  0  0  0  0  0  0
   -8.4209   -8.6952   11.5476 H   0  0  0  0  0  0  0  0  0  0  0  0
   -7.1857   -9.4802   12.1252 H   0  0  0  0  0  0  0  0  0  0  0  0
   -8.2719   -5.0520   13.6518 H   0  0  0  0  0  0  0  0  0  0  0  0
  -10.3632   -5.4247   15.4079 H   0  0  0  0  0  0  0  0  0  0  0  0
   -9.2968   -4.7039   17.4799 H   0  0  0  0  0  0  0  0  0  0  0  0
   -7.9757   -2.6366   18.1252 H   0  0  0  0  0  0  0  0  0  0  0  0
   -6.4220   -1.8695   16.2797 H   0  0  0  0  0  0  0  0  0  0  0  0
   -6.8588  -10.1211   13.5787 H   0  0  0  0  0  0  0  0  0  0  0  0
   -7.4349   -9.9106   15.0266 H   0  0  0  0  0  0  0  0  0  0  0  0
  1  2  1  0
  2  3  1  0
  2  4  1  0
  4  5  1  0
  4  6  1  0
  6  7  2  0
  6  8  1  0
  8  9  1  0
  9 10  1  0
 10 11  1  0
 11 12  1  0
 12 13  1  0
 13 14  2  0
 13 15  1  0
 15 16  1  0
 15 17  1  0
 17 18  2  0
 18 19  1  0
 19 20  1  0
 20 21  2  0
 12 22  1  0
 22  9  1  0
 21 17  1  0
  1 23  1  0
  1 24  1  0
  1 25  1  0
  2 26  1  0
  3 27  1  0
  3 28  1  0
  3 29  1  0
  4 30  1  0
  5 31  1  0
  8 32  1  0
  9 33  1  0
 10 34  1  0
 10 35  1  0
 11 36  1  0
 11 37  1  0
 15 38  1  0
 16 39  1  0
 18 40  1  0
 19 41  1  0
 20 42  1  0
 22 43  1  0
 22 44  1  0
M  END
>  <Energy>  (763) 
341.50899291783986

>  <compound_id>  (763) 
46384

>  <target_id>  (763) 
1

>  <reference_id>  (763) 
99

>  <inspiration_ids>  (763) 
[99, 64]

>  <energy_score>  (763) 
200.4214915520024

>  <distance_score>  (763) 
13.945394995637152

>  <path>  (763) 
/opt/xchem-fragalysis-2/maxwin/BulkDock/SCRATCH/511025/C46384-P99/C46384-P99.minimised.mol

>  <scratch_subdir>  (763) 
/opt/xchem-fragalysis-2/maxwin/BulkDock/SCRATCH/511025/C46384-P99

>  <fragmenstein_runtime>  (763) 
69.61281776428223

>  <fragmenstein_outcome>  (763) 
too moved

>  <fragmenstein_mode>  (763) 
expansion

>  <fragmenstein_error>  (763) 


$$$$
C46384-P64
     RDKit          3D

 44 45  0  0  0  0  0  0  0  0999 V2000
   -7.5276  -15.7389   11.4922 C   0  0  0  0  0  0  0  0  0  0  0  0
   -8.9072  -15.9251   12.1508 C   0  0  0  0  0  0  0  0  0  0  0  0
   -8.8481  -17.2322   12.9882 C   0  0  0  0  0  0  0  0  0  0  0  0
   -9.3700  -14.6064   12.8716 C   0  0  0  0  0  0  0  0  0  0  0  0
   -8.6115  -14.4727   14.0491 O   0  0  0  0  0  0  0  0  0  0  0  0
   -9.4763  -13.2525   11.9642 C   0  0  0  0  0  0  0  0  0  0  0  0
   -9.6179  -13.3842   10.7782 O   0  0  0  0  0  0  0  0  0  0  0  0
   -9.4744  -12.0399   12.8007 N   0  0  0  0  0  0  0  0  0  0  0  0
   -9.7504  -10.5866   12.4495 C   0  0  0  0  0  0  0  0  0  0  0  0
  -10.8590  -10.4699   11.4559 C   0  0  0  0  0  0  0  0  0  0  0  0
  -10.3093   -9.6817   10.2768 C   0  0  0  0  0  0  0  0  0  0  0  0
   -9.1893   -8.4882   10.4427 N   0  0  0  0  0  0  0  0  0  0  0  0
   -8.3547   -8.0875    8.7415 C   0  0  0  0  0  0  0  0  0  0  0  0
   -7.3259   -8.6633    8.3875 O   0  0  0  0  0  0  0  0  0  0  0  0
   -9.1886   -6.4464    7.5650 C   0  0  0  0  0  0  0  0  0  0  0  0
   -9.9945   -6.3919    6.3939 O   0  0  0  0  0  0  0  0  0  0  0  0
   -8.2146   -5.0473    7.1061 C   0  0  0  0  0  0  0  0  0  0  0  0
   -8.7176   -4.0473    6.2537 C   0  0  0  0  0  0  0  0  0  0  0  0
   -7.7600   -3.0934    6.1537 N   0  0  0  0  0  0  0  0  0  0  0  0
   -6.7850   -3.4531    7.0188 C   0  0  0  0  0  0  0  0  0  0  0  0
   -7.1009   -4.5485    7.6825 N   0  0  0  0  0  0  0  0  0  0  0  0
   -8.6626   -9.5251   11.8175 C   0  0  0  0  0  0  0  0  0  0  0  0
   -7.2853  -16.6027   10.8629 H   0  0  0  0  0  0  0  0  0  0  0  0
   -7.4975  -14.8552   10.8492 H   0  0  0  0  0  0  0  0  0  0  0  0
   -6.7322  -15.6432   12.2370 H   0  0  0  0  0  0  0  0  0  0  0  0
   -9.6195  -16.0991   11.3328 H   0  0  0  0  0  0  0  0  0  0  0  0
   -8.1127  -17.1709   13.7948 H   0  0  0  0  0  0  0  0  0  0  0  0
   -8.5316  -18.0624   12.3446 H   0  0  0  0  0  0  0  0  0  0  0  0
   -9.8392  -17.5027   13.3537 H   0  0  0  0  0  0  0  0  0  0  0  0
  -10.4069  -14.7729   13.1892 H   0  0  0  0  0  0  0  0  0  0  0  0
   -7.6872  -14.4732   13.7567 H   0  0  0  0  0  0  0  0  0  0  0  0
   -9.2429  -12.2966   13.7595 H   0  0  0  0  0  0  0  0  0  0  0  0
  -10.0819  -10.1686   13.4093 H   0  0  0  0  0  0  0  0  0  0  0  0
  -11.7067   -9.9567   11.9283 H   0  0  0  0  0  0  0  0  0  0  0  0
  -11.2612  -11.4279   11.1130 H   0  0  0  0  0  0  0  0  0  0  0  0
  -10.2684   -9.8750    9.2148 H   0  0  0  0  0  0  0  0  0  0  0  0
  -11.2821   -9.2433   10.0374 H   0  0  0  0  0  0  0  0  0  0  0  0
   -9.5466   -5.6104    8.1889 H   0  0  0  0  0  0  0  0  0  0  0  0
   -9.5086   -6.1102    5.6017 H   0  0  0  0  0  0  0  0  0  0  0  0
   -9.6534   -3.9655    5.7157 H   0  0  0  0  0  0  0  0  0  0  0  0
   -7.7897   -2.2568    5.5873 H   0  0  0  0  0  0  0  0  0  0  0  0
   -5.8869   -2.8674    7.1584 H   0  0  0  0  0  0  0  0  0  0  0  0
   -8.5329   -8.9155   12.7104 H   0  0  0  0  0  0  0  0  0  0  0  0
   -7.5556   -9.7027   11.7530 H   0  0  0  0  0  0  0  0  0  0  0  0
  1  2  1  0
  2  3  1  0
  2  4  1  0
  4  5  1  0
  4  6  1  0
  6  7  2  0
  6  8  1  0
  8  9  1  0
  9 10  1  0
 10 11  1  0
 11 12  1  0
 12 13  1  0
 13 14  2  0
 13 15  1  0
 15 16  1  0
 15 17  1  0
 17 18  2  0
 18 19  1  0
 19 20  1  0
 20 21  2  0
 12 22  1  0
 22  9  1  0
 21 17  1  0
  1 23  1  0
  1 24  1  0
  1 25  1  0
  2 26  1  0
  3 27  1  0
  3 28  1  0
  3 29  1  0
  4 30  1  0
  5 31  1  0
  8 32  1  0
  9 33  1  0
 10 34  1  0
 10 35  1  0
 11 36  1  0
 11 37  1  0
 15 38  1  0
 16 39  1  0
 18 40  1  0
 19 41  1  0
 20 42  1  0
 22 43  1  0
 22 44  1  0
M  END
>  <Energy>  (764) 
487.09961289386035

>  <compound_id>  (764) 
46384

>  <target_id>  (764) 
1

>  <reference_id>  (764) 
64

>  <inspiration_ids>  (764) 
[99, 64]

>  <energy_score>  (764) 
346.0121115280193

>  <distance_score>  (764) 
13.21110742150892

>  <path>  (764) 
/opt/xchem-fragalysis-2/maxwin/BulkDock/SCRATCH/511025/C46384-P64/C46384-P64.minimised.mol

>  <scratch_subdir>  (764) 
/opt/xchem-fragalysis-2/maxwin/BulkDock/SCRATCH/511025/C46384-P64

>  <fragmenstein_runtime>  (764) 
50.239593505859375

>  <fragmenstein_outcome>  (764) 
too moved

>  <fragmenstein_mode>  (764) 
expansion

>  <fragmenstein_error>  (764) 


$$$$
C18096-P99
     RDKit          3D

 41 42  0  0  0  0  0  0  0  0999 V2000
   -8.9180  -11.8884   14.9665 O   0  0  0  0  0  0  0  0  0  0  0  0
   -9.7412  -12.5698   14.4570 C   0  0  0  0  0  0  0  0  0  0  0  0
  -11.2029  -12.9310   15.7470 C   0  0  0  0  0  0  0  0  0  0  0  0
  -13.0236  -14.4738   15.4889 S   0  0  0  0  0  0  0  0  0  0  0  0
  -14.2397  -14.9722   17.6491 C   0  0  0  0  0  0  0  0  0  0  0  0
  -14.2063  -16.3778   19.2261 C   0  0  0  0  0  0  0  0  0  0  0  0
  -14.7271  -17.5591   19.9137 N   0  0  0  0  0  0  0  0  0  0  0  0
  -15.1651  -17.2754   21.2002 C   0  0  0  0  0  0  0  0  0  0  0  0
  -14.1609  -16.5371   21.7662 C   0  0  0  0  0  0  0  0  0  0  0  0
  -13.2716  -16.2052   20.6230 N   0  0  0  0  0  0  0  0  0  0  0  0
   -9.8317  -13.0341   13.0177 N   0  0  0  0  0  0  0  0  0  0  0  0
   -9.0256  -12.7002   11.8683 C   0  0  0  0  0  0  0  0  0  0  0  0
   -9.3127  -13.0772   10.3532 C   0  0  0  0  0  0  0  0  0  0  0  0
   -8.0460  -13.0838    9.4756 C   0  0  0  0  0  0  0  0  0  0  0  0
   -8.2165  -11.8385    8.6995 C   0  0  0  0  0  0  0  0  0  0  0  0
   -9.4667  -11.3358    9.3638 C   0  0  0  0  0  0  0  0  0  0  0  0
  -10.5080  -12.3995    9.6243 N   0  0  0  0  0  0  0  0  0  0  0  0
  -11.1758  -12.7430    8.4025 C   0  0  0  0  0  0  0  0  0  0  0  0
  -10.9240  -13.5897    7.5846 O   0  0  0  0  0  0  0  0  0  0  0  0
  -12.3396  -11.7441    8.1479 C   0  0  0  0  0  0  0  0  0  0  0  0
  -11.9665  -10.4627    7.6499 O   0  0  0  0  0  0  0  0  0  0  0  0
  -11.5834  -11.9216   16.0112 H   0  0  0  0  0  0  0  0  0  0  0  0
  -10.8782  -12.8586   16.8021 H   0  0  0  0  0  0  0  0  0  0  0  0
  -15.1550  -14.7900   17.0925 H   0  0  0  0  0  0  0  0  0  0  0  0
  -14.3729  -14.0200   18.1579 H   0  0  0  0  0  0  0  0  0  0  0  0
  -15.9837  -17.8084   21.6651 H   0  0  0  0  0  0  0  0  0  0  0  0
  -13.9208  -16.2522   22.7802 H   0  0  0  0  0  0  0  0  0  0  0  0
  -12.5024  -15.5601   20.6068 H   0  0  0  0  0  0  0  0  0  0  0  0
  -10.6138  -13.6782   12.9242 H   0  0  0  0  0  0  0  0  0  0  0  0
   -9.2219  -11.6240   11.9065 H   0  0  0  0  0  0  0  0  0  0  0  0
   -7.9789  -12.6739   12.1806 H   0  0  0  0  0  0  0  0  0  0  0  0
   -9.6448  -14.1241   10.3978 H   0  0  0  0  0  0  0  0  0  0  0  0
   -8.0392  -13.9543    8.8094 H   0  0  0  0  0  0  0  0  0  0  0  0
   -7.1067  -13.0858   10.0338 H   0  0  0  0  0  0  0  0  0  0  0  0
   -7.3741  -11.1492    8.7880 H   0  0  0  0  0  0  0  0  0  0  0  0
   -8.3784  -12.0633    7.6407 H   0  0  0  0  0  0  0  0  0  0  0  0
   -9.8982  -10.6186    8.6583 H   0  0  0  0  0  0  0  0  0  0  0  0
   -9.3256  -10.6930   10.2350 H   0  0  0  0  0  0  0  0  0  0  0  0
  -13.0384  -12.2020    7.4392 H   0  0  0  0  0  0  0  0  0  0  0  0
  -12.8891  -11.5999    9.0828 H   0  0  0  0  0  0  0  0  0  0  0  0
  -11.5788  -10.6051    6.7662 H   0  0  0  0  0  0  0  0  0  0  0  0
  1  2  2  0
  2  3  1  0
  3  4  1  0
  4  5  1  0
  5  6  1  0
  6  7  2  0
  7  8  1  0
  8  9  2  0
  9 10  1  0
  2 11  1  0
 11 12  1  0
 12 13  1  0
 13 14  1  0
 14 15  1  0
 15 16  1  0
 16 17  1  0
 17 18  1  0
 18 19  2  0
 18 20  1  0
 20 21  1  0
 10  6  1  0
 17 13  1  0
  3 22  1  0
  3 23  1  0
  5 24  1  0
  5 25  1  0
  8 26  1  0
  9 27  1  0
 10 28  1  0
 11 29  1  0
 12 30  1  0
 12 31  1  0
 13 32  1  0
 14 33  1  0
 14 34  1  0
 15 35  1  0
 15 36  1  0
 16 37  1  0
 16 38  1  0
 20 39  1  0
 20 40  1  0
 21 41  1  0
M  END
>  <Energy>  (765) 
620.68895190880255

>  <compound_id>  (765) 
18096

>  <target_id>  (765) 
1

>  <reference_id>  (765) 
99

>  <inspiration_ids>  (765) 
[99, 64]

>  <energy_score>  (765) 
522.0129725548554

>  <distance_score>  (765) 
11.44489953300174

>  <path>  (765) 
/opt/xchem-fragalysis-2/maxwin/BulkDock/SCRATCH/511025/C18096-P99/C18096-P99.minimised.mol

>  <scratch_subdir>  (765) 
/opt/xchem-fragalysis-2/maxwin/BulkDock/SCRATCH/511025/C18096-P99

>  <fragmenstein_runtime>  (765) 
47.86286544799805

>  <fragmenstein_outcome>  (765) 
too moved

>  <fragmenstein_mode>  (765) 
expansion

>  <fragmenstein_error>  (765) 


$$$$
C18096-P64
     RDKit          3D

 41 42  0  0  0  0  0  0  0  0999 V2000
   -8.6754  -12.2063   12.1404 O   0  0  0  0  0  0  0  0  0  0  0  0
   -8.8130  -11.1794   12.7750 C   0  0  0  0  0  0  0  0  0  0  0  0
   -8.9933  -11.6300   14.8138 C   0  0  0  0  0  0  0  0  0  0  0  0
   -8.1508  -12.3757   17.1156 S   0  0  0  0  0  0  0  0  0  0  0  0
   -9.0953  -13.0127   19.2443 C   0  0  0  0  0  0  0  0  0  0  0  0
   -9.5288  -12.8344   21.2514 C   0  0  0  0  0  0  0  0  0  0  0  0
   -9.1587  -11.7658   22.3365 N   0  0  0  0  0  0  0  0  0  0  0  0
   -9.9657  -11.2295   23.3801 C   0  0  0  0  0  0  0  0  0  0  0  0
  -11.0632  -11.9112   23.1084 C   0  0  0  0  0  0  0  0  0  0  0  0
  -10.6686  -12.9532   21.8661 N   0  0  0  0  0  0  0  0  0  0  0  0
   -8.8110   -9.5020   11.8837 N   0  0  0  0  0  0  0  0  0  0  0  0
   -8.4700   -8.9844    9.9126 C   0  0  0  0  0  0  0  0  0  0  0  0
   -7.8019   -7.5026    8.4713 C   0  0  0  0  0  0  0  0  0  0  0  0
   -7.0211   -5.7816    9.2254 C   0  0  0  0  0  0  0  0  0  0  0  0
   -7.0921   -4.7021    8.0533 C   0  0  0  0  0  0  0  0  0  0  0  0
   -7.5041   -5.6187    7.0054 C   0  0  0  0  0  0  0  0  0  0  0  0
   -8.8025   -5.9129    7.4732 N   0  0  0  0  0  0  0  0  0  0  0  0
   -9.7369   -5.9236    6.3373 C   0  0  0  0  0  0  0  0  0  0  0  0
  -10.0942   -6.8249    5.6309 O   0  0  0  0  0  0  0  0  0  0  0  0
  -10.2464   -4.4105    5.9513 C   0  0  0  0  0  0  0  0  0  0  0  0
   -9.3032   -3.3439    5.9450 O   0  0  0  0  0  0  0  0  0  0  0  0
   -8.2361  -10.8773   14.7429 H   0  0  0  0  0  0  0  0  0  0  0  0
   -9.0357  -12.6840   14.5326 H   0  0  0  0  0  0  0  0  0  0  0  0
  -10.0817  -13.1296   18.8193 H   0  0  0  0  0  0  0  0  0  0  0  0
   -8.5599  -13.9417   19.3600 H   0  0  0  0  0  0  0  0  0  0  0  0
   -9.6264  -10.5097   24.1087 H   0  0  0  0  0  0  0  0  0  0  0  0
  -12.0035  -12.0044   23.6379 H   0  0  0  0  0  0  0  0  0  0  0  0
  -11.1446  -13.8015   21.5962 H   0  0  0  0  0  0  0  0  0  0  0  0
   -8.8499   -8.7871   12.5591 H   0  0  0  0  0  0  0  0  0  0  0  0
   -7.8463   -9.8081    9.5380 H   0  0  0  0  0  0  0  0  0  0  0  0
   -9.4418   -9.3034    9.5015 H   0  0  0  0  0  0  0  0  0  0  0  0
   -7.0666   -8.0693    7.8900 H   0  0  0  0  0  0  0  0  0  0  0  0
   -7.6166   -5.1343    9.8635 H   0  0  0  0  0  0  0  0  0  0  0  0
   -6.1575   -6.0048    9.8394 H   0  0  0  0  0  0  0  0  0  0  0  0
   -7.8769   -3.9517    8.2610 H   0  0  0  0  0  0  0  0  0  0  0  0
   -6.2389   -4.1130    7.7027 H   0  0  0  0  0  0  0  0  0  0  0  0
   -6.9099   -6.2414    6.3476 H   0  0  0  0  0  0  0  0  0  0  0  0
   -7.6366   -4.8811    6.2039 H   0  0  0  0  0  0  0  0  0  0  0  0
  -11.1073   -4.0167    6.4799 H   0  0  0  0  0  0  0  0  0  0  0  0
  -10.5599   -4.5081    4.9057 H   0  0  0  0  0  0  0  0  0  0  0  0
   -8.7170   -3.5153    5.1891 H   0  0  0  0  0  0  0  0  0  0  0  0
  1  2  2  0
  2  3  1  0
  3  4  1  0
  4  5  1  0
  5  6  1  0
  6  7  2  0
  7  8  1  0
  8  9  2  0
  9 10  1  0
  2 11  1  0
 11 12  1  0
 12 13  1  0
 13 14  1  0
 14 15  1  0
 15 16  1  0
 16 17  1  0
 17 18  1  0
 18 19  2  0
 18 20  1  0
 20 21  1  0
 10  6  1  0
 17 13  1  0
  3 22  1  0
  3 23  1  0
  5 24  1  0
  5 25  1  0
  8 26  1  0
  9 27  1  0
 10 28  1  0
 11 29  1  0
 12 30  1  0
 12 31  1  0
 13 32  1  0
 14 33  1  0
 14 34  1  0
 15 35  1  0
 15 36  1  0
 16 37  1  0
 16 38  1  0
 20 39  1  0
 20 40  1  0
 21 41  1  0
M  END
>  <Energy>  (766) 
1349.0215215741971

>  <compound_id>  (766) 
18096

>  <target_id>  (766) 
1

>  <reference_id>  (766) 
64

>  <inspiration_ids>  (766) 
[99, 64]

>  <energy_score>  (766) 
1250.3455422202705

>  <distance_score>  (766) 
9.535682194126267

>  <path>  (766) 
/opt/xchem-fragalysis-2/maxwin/BulkDock/SCRATCH/511025/C18096-P64/C18096-P64.minimised.mol

>  <scratch_subdir>  (766) 
/opt/xchem-fragalysis-2/maxwin/BulkDock/SCRATCH/511025/C18096-P64

>  <fragmenstein_runtime>  (766) 
37.63013482093811

>  <fragmenstein_outcome>  (766) 
too moved

>  <fragmenstein_mode>  (766) 
expansion

>  <fragmenstein_error>  (766) 


$$$$
C46385-P99
     RDKit          3D

 43 44  0  0  0  0  0  0  0  0999 V2000
   -8.3533  -13.7063   19.7688 C   0  0  0  0  0  0  0  0  0  0  0  0
   -7.4427  -12.7940   18.8929 N   0  0  0  0  0  0  0  0  0  0  0  0
   -7.6612  -12.2064   17.6491 C   0  0  0  0  0  0  0  0  0  0  0  0
   -8.5292  -12.3563   17.0064 O   0  0  0  0  0  0  0  0  0  0  0  0
   -6.5386  -11.0577   17.1469 N   0  0  0  0  0  0  0  0  0  0  0  0
   -6.4447  -10.1249   15.7413 C   0  0  0  0  0  0  0  0  0  0  0  0
   -5.8028  -10.0552   13.7971 C   0  0  0  0  0  0  0  0  0  0  0  0
   -4.9881  -10.8046   13.3996 O   0  0  0  0  0  0  0  0  0  0  0  0
   -6.4516   -8.8561   13.1164 N   0  0  0  0  0  0  0  0  0  0  0  0
   -6.0827   -7.9921   11.3924 C   0  0  0  0  0  0  0  0  0  0  0  0
   -4.8862   -7.4868   11.0097 C   0  0  0  0  0  0  0  0  0  0  0  0
   -5.2941   -6.2398   10.3238 C   0  0  0  0  0  0  0  0  0  0  0  0
   -6.8892   -5.8906    9.4906 N   0  0  0  0  0  0  0  0  0  0  0  0
   -7.2284   -5.0035    7.9716 C   0  0  0  0  0  0  0  0  0  0  0  0
   -7.2987   -5.4709    6.8326 O   0  0  0  0  0  0  0  0  0  0  0  0
   -7.6396   -3.3932    7.9393 C   0  0  0  0  0  0  0  0  0  0  0  0
   -6.5419   -2.4904    7.6996 O   0  0  0  0  0  0  0  0  0  0  0  0
   -8.5369   -3.1521    6.7217 C   0  0  0  0  0  0  0  0  0  0  0  0
   -9.9016   -3.0890    6.6039 C   0  0  0  0  0  0  0  0  0  0  0  0
  -10.1429   -2.8844    5.2758 N   0  0  0  0  0  0  0  0  0  0  0  0
   -8.9462   -2.6986    4.6548 C   0  0  0  0  0  0  0  0  0  0  0  0
   -7.9492   -2.8144    5.4999 N   0  0  0  0  0  0  0  0  0  0  0  0
   -6.6989   -7.7010    9.7905 C   0  0  0  0  0  0  0  0  0  0  0  0
   -8.0943  -13.8773   20.8159 H   0  0  0  0  0  0  0  0  0  0  0  0
   -9.3384  -13.2294   19.7345 H   0  0  0  0  0  0  0  0  0  0  0  0
   -8.7202  -14.6295   19.3322 H   0  0  0  0  0  0  0  0  0  0  0  0
   -6.6148  -12.4127   19.2808 H   0  0  0  0  0  0  0  0  0  0  0  0
   -5.7785  -11.0895   17.7585 H   0  0  0  0  0  0  0  0  0  0  0  0
   -7.4025  -10.0367   15.1009 H   0  0  0  0  0  0  0  0  0  0  0  0
   -6.6915   -9.1933   16.3022 H   0  0  0  0  0  0  0  0  0  0  0  0
   -7.1902   -8.4786   13.7219 H   0  0  0  0  0  0  0  0  0  0  0  0
   -6.5564   -7.2188   11.8585 H   0  0  0  0  0  0  0  0  0  0  0  0
   -4.4646   -8.4132   10.6878 H   0  0  0  0  0  0  0  0  0  0  0  0
   -4.7124   -7.0279   11.9200 H   0  0  0  0  0  0  0  0  0  0  0  0
   -5.5275   -5.7510   11.3165 H   0  0  0  0  0  0  0  0  0  0  0  0
   -4.4227   -5.6987    9.8667 H   0  0  0  0  0  0  0  0  0  0  0  0
   -8.2465   -3.0977    8.7871 H   0  0  0  0  0  0  0  0  0  0  0  0
   -6.4199   -2.5420    6.7268 H   0  0  0  0  0  0  0  0  0  0  0  0
  -10.7109   -3.1919    7.3041 H   0  0  0  0  0  0  0  0  0  0  0  0
  -11.0619   -2.9052    4.8445 H   0  0  0  0  0  0  0  0  0  0  0  0
   -8.8647   -2.4890    3.5982 H   0  0  0  0  0  0  0  0  0  0  0  0
   -6.1174   -8.1746    9.0040 H   0  0  0  0  0  0  0  0  0  0  0  0
   -7.6391   -8.2075    9.6038 H   0  0  0  0  0  0  0  0  0  0  0  0
  1  2  1  0
  2  3  1  0
  3  4  2  0
  3  5  1  0
  5  6  1  0
  6  7  1  0
  7  8  2  0
  7  9  1  0
  9 10  1  0
 10 11  1  0
 11 12  1  0
 12 13  1  0
 13 14  1  0
 14 15  2  0
 14 16  1  0
 16 17  1  0
 16 18  1  0
 18 19  2  0
 19 20  1  0
 20 21  1  0
 21 22  2  0
 13 23  1  0
 23 10  1  0
 22 18  1  0
  1 24  1  0
  1 25  1  0
  1 26  1  0
  2 27  1  0
  5 28  1  0
  6 29  1  0
  6 30  1  0
  9 31  1  0
 10 32  1  0
 11 33  1  0
 11 34  1  0
 12 35  1  0
 12 36  1  0
 16 37  1  0
 17 38  1  0
 19 39  1  0
 20 40  1  0
 21 41  1  0
 23 42  1  0
 23 43  1  0
M  END
>  <Energy>  (767) 
607.20102558680151

>  <compound_id>  (767) 
46385

>  <target_id>  (767) 
1

>  <reference_id>  (767) 
99

>  <inspiration_ids>  (767) 
[99, 64]

>  <energy_score>  (767) 
567.7833283102577

>  <distance_score>  (767) 
11.59441884050161

>  <path>  (767) 
/opt/xchem-fragalysis-2/maxwin/BulkDock/SCRATCH/511025/C46385-P99/C46385-P99.minimised.mol

>  <scratch_subdir>  (767) 
/opt/xchem-fragalysis-2/maxwin/BulkDock/SCRATCH/511025/C46385-P99

>  <fragmenstein_runtime>  (767) 
41.60920071601868

>  <fragmenstein_outcome>  (767) 
too moved

>  <fragmenstein_mode>  (767) 
expansion

>  <fragmenstein_error>  (767) 


$$$$
C46385-P64
     RDKit          3D

 43 44  0  0  0  0  0  0  0  0999 V2000
   -6.9085  -18.4558   12.0557 C   0  0  0  0  0  0  0  0  0  0  0  0
   -7.3920  -17.1140   12.2003 N   0  0  0  0  0  0  0  0  0  0  0  0
   -8.0154  -16.4304   13.3567 C   0  0  0  0  0  0  0  0  0  0  0  0
   -8.1889  -16.8057   14.4503 O   0  0  0  0  0  0  0  0  0  0  0  0
   -8.3512  -15.1383   12.7299 N   0  0  0  0  0  0  0  0  0  0  0  0
   -9.0716  -13.9983   13.2457 C   0  0  0  0  0  0  0  0  0  0  0  0
   -8.4488  -12.7223   12.6600 C   0  0  0  0  0  0  0  0  0  0  0  0
   -7.9397  -12.8427   11.5748 O   0  0  0  0  0  0  0  0  0  0  0  0
   -8.6617  -11.5290   13.4926 N   0  0  0  0  0  0  0  0  0  0  0  0
   -8.4021  -10.0656   13.2118 C   0  0  0  0  0  0  0  0  0  0  0  0
   -8.9877   -9.1513   14.1758 C   0  0  0  0  0  0  0  0  0  0  0  0
   -7.6473   -8.2442   14.4320 C   0  0  0  0  0  0  0  0  0  0  0  0
   -7.6601   -7.9928   13.1396 N   0  0  0  0  0  0  0  0  0  0  0  0
   -7.3046   -6.1259   12.4816 C   0  0  0  0  0  0  0  0  0  0  0  0
   -6.2748   -5.5729   12.1506 O   0  0  0  0  0  0  0  0  0  0  0  0
   -8.8723   -4.8737   12.4896 C   0  0  0  0  0  0  0  0  0  0  0  0
   -9.8355   -4.9854   13.5746 O   0  0  0  0  0  0  0  0  0  0  0  0
   -9.7184   -4.1677   10.9122 C   0  0  0  0  0  0  0  0  0  0  0  0
   -9.2064   -4.0818    9.3879 C   0  0  0  0  0  0  0  0  0  0  0  0
   -9.2395   -2.6488    8.9609 N   0  0  0  0  0  0  0  0  0  0  0  0
   -9.8753   -1.8151    9.9242 C   0  0  0  0  0  0  0  0  0  0  0  0
  -10.2267   -2.5232   11.0331 N   0  0  0  0  0  0  0  0  0  0  0  0
   -6.7659   -9.1539   13.2761 C   0  0  0  0  0  0  0  0  0  0  0  0
   -7.0624  -19.0062   12.9866 H   0  0  0  0  0  0  0  0  0  0  0  0
   -7.4541  -18.9356   11.2403 H   0  0  0  0  0  0  0  0  0  0  0  0
   -5.8443  -18.4170   11.8132 H   0  0  0  0  0  0  0  0  0  0  0  0
   -7.3300  -16.4753   11.4326 H   0  0  0  0  0  0  0  0  0  0  0  0
   -7.9881  -15.1188   11.7957 H   0  0  0  0  0  0  0  0  0  0  0  0
   -9.0536  -14.0165   14.3237 H   0  0  0  0  0  0  0  0  0  0  0  0
  -10.0935  -14.0930   12.8765 H   0  0  0  0  0  0  0  0  0  0  0  0
   -9.1966  -11.7879   14.3116 H   0  0  0  0  0  0  0  0  0  0  0  0
   -8.9572   -9.8289   12.3045 H   0  0  0  0  0  0  0  0  0  0  0  0
   -9.8579   -8.6360   13.9083 H   0  0  0  0  0  0  0  0  0  0  0  0
   -9.4735   -9.7672   14.8709 H   0  0  0  0  0  0  0  0  0  0  0  0
   -7.4922   -9.1474   15.1146 H   0  0  0  0  0  0  0  0  0  0  0  0
   -7.7993   -7.2564   14.9013 H   0  0  0  0  0  0  0  0  0  0  0  0
   -8.3617   -4.0658   12.9901 H   0  0  0  0  0  0  0  0  0  0  0  0
  -10.0374   -4.0673   13.8303 H   0  0  0  0  0  0  0  0  0  0  0  0
   -8.4701   -4.6102    8.8134 H   0  0  0  0  0  0  0  0  0  0  0  0
   -8.9115   -2.3419    8.0602 H   0  0  0  0  0  0  0  0  0  0  0  0
  -10.0546   -0.7666    9.7402 H   0  0  0  0  0  0  0  0  0  0  0  0
   -5.7975   -8.9691   12.7721 H   0  0  0  0  0  0  0  0  0  0  0  0
   -6.3942   -9.9611   13.9397 H   0  0  0  0  0  0  0  0  0  0  0  0
  1  2  1  0
  2  3  1  0
  3  4  2  0
  3  5  1  0
  5  6  1  0
  6  7  1  0
  7  8  2  0
  7  9  1  0
  9 10  1  0
 10 11  1  0
 11 12  1  0
 12 13  1  0
 13 14  1  0
 14 15  2  0
 14 16  1  0
 16 17  1  0
 16 18  1  0
 18 19  2  0
 19 20  1  0
 20 21  1  0
 21 22  2  0
 13 23  1  0
 23 10  1  0
 22 18  1  0
  1 24  1  0
  1 25  1  0
  1 26  1  0
  2 27  1  0
  5 28  1  0
  6 29  1  0
  6 30  1  0
  9 31  1  0
 10 32  1  0
 11 33  1  0
 11 34  1  0
 12 35  1  0
 12 36  1  0
 16 37  1  0
 17 38  1  0
 19 39  1  0
 20 40  1  0
 21 41  1  0
 23 42  1  0
 23 43  1  0
M  END
>  <Energy>  (768) 
570.17691110743999

>  <compound_id>  (768) 
46385

>  <target_id>  (768) 
1

>  <reference_id>  (768) 
64

>  <inspiration_ids>  (768) 
[99, 64]

>  <energy_score>  (768) 
530.7592138308919

>  <distance_score>  (768) 
12.821952306907951

>  <path>  (768) 
/opt/xchem-fragalysis-2/maxwin/BulkDock/SCRATCH/511025/C46385-P64/C46385-P64.minimised.mol

>  <scratch_subdir>  (768) 
/opt/xchem-fragalysis-2/maxwin/BulkDock/SCRATCH/511025/C46385-P64

>  <fragmenstein_runtime>  (768) 
57.73893690109253

>  <fragmenstein_outcome>  (768) 
too moved

>  <fragmenstein_mode>  (768) 
expansion

>  <fragmenstein_error>  (768) 


$$$$
C46386-P99
     RDKit          3D

 47 48  0  0  0  0  0  0  0  0999 V2000
  -11.8454  -22.2681   20.5794 C   0  0  0  0  0  0  0  0  0  0  0  0
  -12.6994  -21.3349   19.2544 S   0  0  0  0  0  0  0  0  0  0  0  0
  -11.6682  -21.6963   17.6751 C   0  0  0  0  0  0  0  0  0  0  0  0
  -10.2162  -21.3289   17.9486 C   0  0  0  0  0  0  0  0  0  0  0  0
  -11.7839  -23.2064   17.4299 C   0  0  0  0  0  0  0  0  0  0  0  0
  -12.3238  -20.8518   16.3786 C   0  0  0  0  0  0  0  0  0  0  0  0
  -13.4591  -20.4726   16.4949 O   0  0  0  0  0  0  0  0  0  0  0  0
  -11.4066  -20.7878   15.2266 N   0  0  0  0  0  0  0  0  0  0  0  0
  -11.6292  -20.3275   13.8240 C   0  0  0  0  0  0  0  0  0  0  0  0
  -11.5371  -18.8174   13.4260 C   0  0  0  0  0  0  0  0  0  0  0  0
  -12.2761  -18.4322   12.1624 C   0  0  0  0  0  0  0  0  0  0  0  0
  -11.1973  -17.7194   11.3637 C   0  0  0  0  0  0  0  0  0  0  0  0
  -10.2731  -16.9537   12.2599 N   0  0  0  0  0  0  0  0  0  0  0  0
   -9.2987  -16.2235   11.4747 C   0  0  0  0  0  0  0  0  0  0  0  0
   -8.1978  -16.5474   11.0922 O   0  0  0  0  0  0  0  0  0  0  0  0
   -9.8157  -14.7636   11.1118 C   0  0  0  0  0  0  0  0  0  0  0  0
   -8.9434  -13.7374   11.6223 O   0  0  0  0  0  0  0  0  0  0  0  0
   -9.9297  -14.6182    9.6093 C   0  0  0  0  0  0  0  0  0  0  0  0
   -9.0501  -14.0296    8.7158 C   0  0  0  0  0  0  0  0  0  0  0  0
   -9.6241  -14.1705    7.4847 N   0  0  0  0  0  0  0  0  0  0  0  0
  -10.8032  -14.8387    7.6582 C   0  0  0  0  0  0  0  0  0  0  0  0
  -11.0204  -15.1192    8.9228 N   0  0  0  0  0  0  0  0  0  0  0  0
  -10.1817  -18.3108   12.9462 C   0  0  0  0  0  0  0  0  0  0  0  0
  -10.8556  -21.8582   20.7777 H   0  0  0  0  0  0  0  0  0  0  0  0
  -11.7878  -23.3247   20.3180 H   0  0  0  0  0  0  0  0  0  0  0  0
  -12.4360  -22.1736   21.4949 H   0  0  0  0  0  0  0  0  0  0  0  0
  -10.0880  -20.2506   17.8609 H   0  0  0  0  0  0  0  0  0  0  0  0
   -9.5542  -21.7782   17.1992 H   0  0  0  0  0  0  0  0  0  0  0  0
   -9.8352  -21.6674   18.9133 H   0  0  0  0  0  0  0  0  0  0  0  0
  -11.3004  -23.8032   18.2091 H   0  0  0  0  0  0  0  0  0  0  0  0
  -11.3017  -23.4730   16.4818 H   0  0  0  0  0  0  0  0  0  0  0  0
  -12.8303  -23.5202   17.3413 H   0  0  0  0  0  0  0  0  0  0  0  0
  -10.5521  -21.2787   15.4562 H   0  0  0  0  0  0  0  0  0  0  0  0
  -12.6469  -20.6656   13.5941 H   0  0  0  0  0  0  0  0  0  0  0  0
  -10.9448  -20.9156   13.2026 H   0  0  0  0  0  0  0  0  0  0  0  0
  -11.9759  -18.2435   14.2412 H   0  0  0  0  0  0  0  0  0  0  0  0
  -13.1007  -17.7491   12.3976 H   0  0  0  0  0  0  0  0  0  0  0  0
  -12.6862  -19.2811   11.6069 H   0  0  0  0  0  0  0  0  0  0  0  0
  -10.6461  -18.3791   10.6716 H   0  0  0  0  0  0  0  0  0  0  0  0
  -11.6863  -16.9900   10.7062 H   0  0  0  0  0  0  0  0  0  0  0  0
  -10.7994  -14.6024   11.5658 H   0  0  0  0  0  0  0  0  0  0  0  0
   -8.0511  -14.0289   11.3604 H   0  0  0  0  0  0  0  0  0  0  0  0
   -8.0946  -13.5449    8.8522 H   0  0  0  0  0  0  0  0  0  0  0  0
   -9.2509  -13.8463    6.6034 H   0  0  0  0  0  0  0  0  0  0  0  0
  -11.4577  -15.0827    6.8320 H   0  0  0  0  0  0  0  0  0  0  0  0
   -9.5334  -18.1409   13.7998 H   0  0  0  0  0  0  0  0  0  0  0  0
   -9.6055  -19.0321   12.3403 H   0  0  0  0  0  0  0  0  0  0  0  0
  1  2  1  0
  2  3  1  0
  3  4  1  0
  3  5  1  0
  3  6  1  0
  6  7  2  0
  6  8  1  0
  8  9  1  0
  9 10  1  0
 10 11  1  0
 11 12  1  0
 12 13  1  0
 13 14  1  0
 14 15  2  0
 14 16  1  0
 16 17  1  0
 16 18  1  0
 18 19  2  0
 19 20  1  0
 20 21  1  0
 21 22  2  0
 13 23  1  0
 23 10  1  0
 22 18  1  0
  1 24  1  0
  1 25  1  0
  1 26  1  0
  4 27  1  0
  4 28  1  0
  4 29  1  0
  5 30  1  0
  5 31  1  0
  5 32  1  0
  8 33  1  0
  9 34  1  0
  9 35  1  0
 10 36  1  0
 11 37  1  0
 11 38  1  0
 12 39  1  0
 12 40  1  0
 16 41  1  0
 17 42  1  0
 19 43  1  0
 20 44  1  0
 21 45  1  0
 23 46  1  0
 23 47  1  0
M  END
>  <Energy>  (769) 
169.83011714647114

>  <compound_id>  (769) 
46386

>  <target_id>  (769) 
1

>  <reference_id>  (769) 
99

>  <inspiration_ids>  (769) 
[99, 64]

>  <energy_score>  (769) 
37.23764483880473

>  <distance_score>  (769) 
13.995911081165278

>  <path>  (769) 
/opt/xchem-fragalysis-2/maxwin/BulkDock/SCRATCH/511025/C46386-P99/C46386-P99.minimised.mol

>  <scratch_subdir>  (769) 
/opt/xchem-fragalysis-2/maxwin/BulkDock/SCRATCH/511025/C46386-P99

>  <fragmenstein_runtime>  (769) 
42.430392265319824

>  <fragmenstein_outcome>  (769) 
too moved

>  <fragmenstein_mode>  (769) 
expansion

>  <fragmenstein_error>  (769) 


$$$$
C46386-P64
     RDKit          3D

 47 48  0  0  0  0  0  0  0  0999 V2000
  -11.5938  -15.3915   22.5469 C   0  0  0  0  0  0  0  0  0  0  0  0
  -10.8897  -13.2990   21.4986 S   0  0  0  0  0  0  0  0  0  0  0  0
   -9.5108  -13.2556   19.5289 C   0  0  0  0  0  0  0  0  0  0  0  0
   -9.0807  -15.0779   19.2692 C   0  0  0  0  0  0  0  0  0  0  0  0
   -8.0404  -12.8263   19.0476 C   0  0  0  0  0  0  0  0  0  0  0  0
  -10.6805  -12.1488   18.2323 C   0  0  0  0  0  0  0  0  0  0  0  0
  -11.6903  -11.5985   18.3849 O   0  0  0  0  0  0  0  0  0  0  0  0
  -10.0309  -12.3562   17.2586 N   0  0  0  0  0  0  0  0  0  0  0  0
  -10.3504  -12.0672   15.4091 C   0  0  0  0  0  0  0  0  0  0  0  0
  -10.8277  -10.4076   14.7924 C   0  0  0  0  0  0  0  0  0  0  0  0
  -10.7640   -9.3968   13.6698 C   0  0  0  0  0  0  0  0  0  0  0  0
  -12.3706   -8.9558   13.3960 C   0  0  0  0  0  0  0  0  0  0  0  0
  -13.2131   -8.6949   14.5517 N   0  0  0  0  0  0  0  0  0  0  0  0
  -14.4813   -8.1908   14.1377 C   0  0  0  0  0  0  0  0  0  0  0  0
  -15.5104   -8.7711   13.8769 O   0  0  0  0  0  0  0  0  0  0  0  0
  -14.4656   -6.6485   13.8965 C   0  0  0  0  0  0  0  0  0  0  0  0
  -14.3241   -6.4114   12.4705 O   0  0  0  0  0  0  0  0  0  0  0  0
  -13.5002   -5.8232   14.7052 C   0  0  0  0  0  0  0  0  0  0  0  0
  -13.7948   -4.7238   15.4911 C   0  0  0  0  0  0  0  0  0  0  0  0
  -12.5912   -4.2171   15.8990 N   0  0  0  0  0  0  0  0  0  0  0  0
  -11.6136   -5.0104   15.3842 C   0  0  0  0  0  0  0  0  0  0  0  0
  -12.1248   -5.9875   14.6693 N   0  0  0  0  0  0  0  0  0  0  0  0
  -12.7789  -10.0814   14.9007 C   0  0  0  0  0  0  0  0  0  0  0  0
  -12.1963  -15.9084   21.7596 H   0  0  0  0  0  0  0  0  0  0  0  0
  -11.1963  -16.1693   23.1731 H   0  0  0  0  0  0  0  0  0  0  0  0
  -12.3239  -15.2204   23.3684 H   0  0  0  0  0  0  0  0  0  0  0  0
   -8.4935  -15.4126   18.3998 H   0  0  0  0  0  0  0  0  0  0  0  0
   -9.9891  -15.6139   19.1472 H   0  0  0  0  0  0  0  0  0  0  0  0
   -8.6026  -15.5929   20.0929 H   0  0  0  0  0  0  0  0  0  0  0  0
   -7.7806  -13.1704   18.0576 H   0  0  0  0  0  0  0  0  0  0  0  0
   -7.8942  -11.7660   18.8350 H   0  0  0  0  0  0  0  0  0  0  0  0
   -7.2512  -13.1206   19.7038 H   0  0  0  0  0  0  0  0  0  0  0  0
   -9.1837  -12.7746   17.5395 H   0  0  0  0  0  0  0  0  0  0  0  0
  -10.7502  -13.0111   15.0789 H   0  0  0  0  0  0  0  0  0  0  0  0
   -9.3094  -12.1820   14.9887 H   0  0  0  0  0  0  0  0  0  0  0  0
  -10.1145  -10.8046   14.0288 H   0  0  0  0  0  0  0  0  0  0  0  0
  -10.0547   -8.6962   14.1247 H   0  0  0  0  0  0  0  0  0  0  0  0
  -10.3718   -9.7414   12.6893 H   0  0  0  0  0  0  0  0  0  0  0  0
  -12.8726   -9.5929   12.6364 H   0  0  0  0  0  0  0  0  0  0  0  0
  -12.4756   -8.0176   12.8728 H   0  0  0  0  0  0  0  0  0  0  0  0
  -15.4748   -6.3005   14.1585 H   0  0  0  0  0  0  0  0  0  0  0  0
  -15.0351   -6.9528   12.0819 H   0  0  0  0  0  0  0  0  0  0  0  0
  -14.7309   -4.2516   15.7534 H   0  0  0  0  0  0  0  0  0  0  0  0
  -12.4491   -3.3979   16.4734 H   0  0  0  0  0  0  0  0  0  0  0  0
  -10.5606   -4.8301   15.5520 H   0  0  0  0  0  0  0  0  0  0  0  0
  -13.1468  -10.3132   15.9102 H   0  0  0  0  0  0  0  0  0  0  0  0
  -13.5171  -10.7247   14.3729 H   0  0  0  0  0  0  0  0  0  0  0  0
  1  2  1  0
  2  3  1  0
  3  4  1  0
  3  5  1  0
  3  6  1  0
  6  7  2  0
  6  8  1  0
  8  9  1  0
  9 10  1  0
 10 11  1  0
 11 12  1  0
 12 13  1  0
 13 14  1  0
 14 15  2  0
 14 16  1  0
 16 17  1  0
 16 18  1  0
 18 19  2  0
 19 20  1  0
 20 21  1  0
 21 22  2  0
 13 23  1  0
 23 10  1  0
 22 18  1  0
  1 24  1  0
  1 25  1  0
  1 26  1  0
  4 27  1  0
  4 28  1  0
  4 29  1  0
  5 30  1  0
  5 31  1  0
  5 32  1  0
  8 33  1  0
  9 34  1  0
  9 35  1  0
 10 36  1  0
 11 37  1  0
 11 38  1  0
 12 39  1  0
 12 40  1  0
 16 41  1  0
 17 42  1  0
 19 43  1  0
 20 44  1  0
 21 45  1  0
 23 46  1  0
 23 47  1  0
M  END
>  <Energy>  (770) 
704.75976366622729

>  <compound_id>  (770) 
46386

>  <target_id>  (770) 
1

>  <reference_id>  (770) 
64

>  <inspiration_ids>  (770) 
[99, 64]

>  <energy_score>  (770) 
572.1672913585578

>  <distance_score>  (770) 
12.847649042961182

>  <path>  (770) 
/opt/xchem-fragalysis-2/maxwin/BulkDock/SCRATCH/511025/C46386-P64/C46386-P64.minimised.mol

>  <scratch_subdir>  (770) 
/opt/xchem-fragalysis-2/maxwin/BulkDock/SCRATCH/511025/C46386-P64

>  <fragmenstein_runtime>  (770) 
42.96688747406006

>  <fragmenstein_outcome>  (770) 
too moved

>  <fragmenstein_mode>  (770) 
expansion

>  <fragmenstein_error>  (770) 


$$$$
C46387-P99
     RDKit          3D

 44 45  0  0  0  0  0  0  0  0999 V2000
  -10.5262   -8.7781    6.5594 C   0  0  0  0  0  0  0  0  0  0  0  0
   -9.7153   -9.5511    7.5126 N   0  0  0  0  0  0  0  0  0  0  0  0
   -8.9564   -7.7549    7.9324 C   0  0  0  0  0  0  0  0  0  0  0  0
   -8.3936   -5.7810    7.3701 C   0  0  0  0  0  0  0  0  0  0  0  0
   -7.4147   -5.1994    6.2908 C   0  0  0  0  0  0  0  0  0  0  0  0
   -7.0705   -3.8412    6.8152 C   0  0  0  0  0  0  0  0  0  0  0  0
   -8.2459   -3.7098    7.7356 C   0  0  0  0  0  0  0  0  0  0  0  0
   -9.4503   -4.4265    7.2615 N   0  0  0  0  0  0  0  0  0  0  0  0
  -10.0045   -3.7491    6.1071 C   0  0  0  0  0  0  0  0  0  0  0  0
   -9.7942   -3.9058    4.9299 O   0  0  0  0  0  0  0  0  0  0  0  0
  -10.9225   -2.6031    6.6130 C   0  0  0  0  0  0  0  0  0  0  0  0
  -11.2279   -1.6887    5.5668 O   0  0  0  0  0  0  0  0  0  0  0  0
  -10.1007  -10.2359    8.7534 C   0  0  0  0  0  0  0  0  0  0  0  0
  -11.1507  -10.2467    9.3457 O   0  0  0  0  0  0  0  0  0  0  0  0
   -8.9527  -11.2689    9.3828 C   0  0  0  0  0  0  0  0  0  0  0  0
   -7.5873  -11.0552    9.1037 O   0  0  0  0  0  0  0  0  0  0  0  0
   -9.4203  -12.0609   10.7688 C   0  0  0  0  0  0  0  0  0  0  0  0
   -8.9734  -13.4049   11.3697 C   0  0  0  0  0  0  0  0  0  0  0  0
   -9.8192  -14.3406   11.9684 C   0  0  0  0  0  0  0  0  0  0  0  0
   -9.0220  -15.3140   12.4977 N   0  0  0  0  0  0  0  0  0  0  0  0
   -7.7372  -14.9583   12.2205 C   0  0  0  0  0  0  0  0  0  0  0  0
   -7.6728  -13.8066   11.5769 N   0  0  0  0  0  0  0  0  0  0  0  0
  -11.5713   -8.8545    6.8974 H   0  0  0  0  0  0  0  0  0  0  0  0
  -10.2852   -8.0464    5.7994 H   0  0  0  0  0  0  0  0  0  0  0  0
  -10.6645   -9.5924    5.8153 H   0  0  0  0  0  0  0  0  0  0  0  0
   -7.9300   -8.0789    8.2109 H   0  0  0  0  0  0  0  0  0  0  0  0
   -9.5950   -7.0641    7.1104 H   0  0  0  0  0  0  0  0  0  0  0  0
   -7.6948   -5.5595    8.1963 H   0  0  0  0  0  0  0  0  0  0  0  0
   -7.8461   -4.8791    5.3648 H   0  0  0  0  0  0  0  0  0  0  0  0
   -6.5922   -5.8031    6.0461 H   0  0  0  0  0  0  0  0  0  0  0  0
   -6.1107   -3.7527    7.3146 H   0  0  0  0  0  0  0  0  0  0  0  0
   -7.0825   -3.0860    6.0195 H   0  0  0  0  0  0  0  0  0  0  0  0
   -8.4761   -2.6373    7.7756 H   0  0  0  0  0  0  0  0  0  0  0  0
   -8.1368   -3.9461    8.7853 H   0  0  0  0  0  0  0  0  0  0  0  0
  -10.4392   -2.0267    7.4034 H   0  0  0  0  0  0  0  0  0  0  0  0
  -11.8523   -3.0149    7.0116 H   0  0  0  0  0  0  0  0  0  0  0  0
  -11.5821   -2.2838    4.8682 H   0  0  0  0  0  0  0  0  0  0  0  0
   -9.1441  -12.0928    8.6706 H   0  0  0  0  0  0  0  0  0  0  0  0
   -7.1291  -11.8837    9.3449 H   0  0  0  0  0  0  0  0  0  0  0  0
   -9.4269  -11.3305   11.5852 H   0  0  0  0  0  0  0  0  0  0  0  0
  -10.4545  -12.3125   10.5068 H   0  0  0  0  0  0  0  0  0  0  0  0
  -10.8958  -14.3729   12.0644 H   0  0  0  0  0  0  0  0  0  0  0  0
   -9.3261  -16.1552   12.9672 H   0  0  0  0  0  0  0  0  0  0  0  0
   -6.8913  -15.5717   12.4972 H   0  0  0  0  0  0  0  0  0  0  0  0
  1  2  1  0
  2  3  1  0
  3  4  1  0
  4  5  1  0
  5  6  1  0
  6  7  1  0
  7  8  1  0
  8  9  1  0
  9 10  2  0
  9 11  1  0
 11 12  1  0
  2 13  1  0
 13 14  2  0
 13 15  1  0
 15 16  1  0
 15 17  1  0
 17 18  1  0
 18 19  2  0
 19 20  1  0
 20 21  1  0
 21 22  2  0
  8  4  1  0
 22 18  1  0
  1 23  1  0
  1 24  1  0
  1 25  1  0
  3 26  1  0
  3 27  1  0
  4 28  1  0
  5 29  1  0
  5 30  1  0
  6 31  1  0
  6 32  1  0
  7 33  1  0
  7 34  1  0
 11 35  1  0
 11 36  1  0
 12 37  1  0
 15 38  1  0
 16 39  1  0
 17 40  1  0
 17 41  1  0
 19 42  1  0
 20 43  1  0
 21 44  1  0
M  END
>  <Energy>  (771) 
551.25488057644486

>  <compound_id>  (771) 
46387

>  <target_id>  (771) 
1

>  <reference_id>  (771) 
99

>  <inspiration_ids>  (771) 
[99, 64]

>  <energy_score>  (771) 
394.1352692552091

>  <distance_score>  (771) 
13.907987761099687

>  <path>  (771) 
/opt/xchem-fragalysis-2/maxwin/BulkDock/SCRATCH/511025/C46387-P99/C46387-P99.minimised.mol

>  <scratch_subdir>  (771) 
/opt/xchem-fragalysis-2/maxwin/BulkDock/SCRATCH/511025/C46387-P99

>  <fragmenstein_runtime>  (771) 
36.02645492553711

>  <fragmenstein_outcome>  (771) 
too moved

>  <fragmenstein_mode>  (771) 
expansion

>  <fragmenstein_error>  (771) 


$$$$
C46387-P64
     RDKit          3D

 44 45  0  0  0  0  0  0  0  0999 V2000
   -8.9888  -11.9188   18.7352 C   0  0  0  0  0  0  0  0  0  0  0  0
   -8.7322  -13.1149   18.3890 N   0  0  0  0  0  0  0  0  0  0  0  0
   -7.3983  -12.4051   17.9722 C   0  0  0  0  0  0  0  0  0  0  0  0
   -7.3734  -11.1669   16.5354 C   0  0  0  0  0  0  0  0  0  0  0  0
   -6.1823  -10.1759   16.1536 C   0  0  0  0  0  0  0  0  0  0  0  0
   -6.1584  -10.1137   14.2687 C   0  0  0  0  0  0  0  0  0  0  0  0
   -7.7549  -10.0075   14.4174 C   0  0  0  0  0  0  0  0  0  0  0  0
   -8.4937  -11.3263   14.7937 N   0  0  0  0  0  0  0  0  0  0  0  0
   -8.3678  -12.4029   13.5231 C   0  0  0  0  0  0  0  0  0  0  0  0
   -7.5259  -13.2748   13.2925 O   0  0  0  0  0  0  0  0  0  0  0  0
   -9.3692  -12.2689   12.3538 C   0  0  0  0  0  0  0  0  0  0  0  0
   -8.7592  -12.3934   11.0570 O   0  0  0  0  0  0  0  0  0  0  0  0
   -8.5318  -14.2671   19.1470 C   0  0  0  0  0  0  0  0  0  0  0  0
   -8.4757  -14.2886   20.2759 O   0  0  0  0  0  0  0  0  0  0  0  0
   -8.4973  -16.0678   18.4679 C   0  0  0  0  0  0  0  0  0  0  0  0
   -7.9335  -16.5829   17.2697 O   0  0  0  0  0  0  0  0  0  0  0  0
   -8.1914  -17.2269   19.6471 C   0  0  0  0  0  0  0  0  0  0  0  0
   -9.1464  -18.3719   19.9464 C   0  0  0  0  0  0  0  0  0  0  0  0
   -9.8543  -19.2181   19.1212 C   0  0  0  0  0  0  0  0  0  0  0  0
  -10.3818  -20.1921   19.9352 N   0  0  0  0  0  0  0  0  0  0  0  0
  -10.0048  -19.9129   21.2154 C   0  0  0  0  0  0  0  0  0  0  0  0
   -9.2781  -18.8192   21.2650 N   0  0  0  0  0  0  0  0  0  0  0  0
   -8.4061  -11.0198   19.0580 H   0  0  0  0  0  0  0  0  0  0  0  0
  -10.0380  -11.7403   18.3811 H   0  0  0  0  0  0  0  0  0  0  0  0
   -9.2477  -12.4301   19.5751 H   0  0  0  0  0  0  0  0  0  0  0  0
   -7.0097  -12.0188   18.9018 H   0  0  0  0  0  0  0  0  0  0  0  0
   -6.3867  -12.7821   17.9101 H   0  0  0  0  0  0  0  0  0  0  0  0
   -7.4359  -10.4402   17.3795 H   0  0  0  0  0  0  0  0  0  0  0  0
   -5.2743  -10.3995   16.7069 H   0  0  0  0  0  0  0  0  0  0  0  0
   -6.6369   -9.2375   16.5310 H   0  0  0  0  0  0  0  0  0  0  0  0
   -5.7160  -10.9589   13.7692 H   0  0  0  0  0  0  0  0  0  0  0  0
   -5.6647   -9.3639   13.6029 H   0  0  0  0  0  0  0  0  0  0  0  0
   -8.1839   -9.9689   13.4095 H   0  0  0  0  0  0  0  0  0  0  0  0
   -8.2104   -9.0608   14.5806 H   0  0  0  0  0  0  0  0  0  0  0  0
  -10.0078  -13.1549   12.3535 H   0  0  0  0  0  0  0  0  0  0  0  0
   -9.8660  -11.2992   12.3600 H   0  0  0  0  0  0  0  0  0  0  0  0
   -8.0927  -13.1004   11.1728 H   0  0  0  0  0  0  0  0  0  0  0  0
   -9.5500  -16.2620   18.3822 H   0  0  0  0  0  0  0  0  0  0  0  0
   -8.0794  -17.5431   17.2539 H   0  0  0  0  0  0  0  0  0  0  0  0
   -7.2312  -17.6989   19.3988 H   0  0  0  0  0  0  0  0  0  0  0  0
   -8.0616  -16.7439   20.6023 H   0  0  0  0  0  0  0  0  0  0  0  0
   -9.9878  -19.2513   18.0489 H   0  0  0  0  0  0  0  0  0  0  0  0
  -10.9089  -21.0035   19.6399 H   0  0  0  0  0  0  0  0  0  0  0  0
  -10.2769  -20.5471   22.0486 H   0  0  0  0  0  0  0  0  0  0  0  0
  1  2  1  0
  2  3  1  0
  3  4  1  0
  4  5  1  0
  5  6  1  0
  6  7  1  0
  7  8  1  0
  8  9  1  0
  9 10  2  0
  9 11  1  0
 11 12  1  0
  2 13  1  0
 13 14  2  0
 13 15  1  0
 15 16  1  0
 15 17  1  0
 17 18  1  0
 18 19  2  0
 19 20  1  0
 20 21  1  0
 21 22  2  0
  8  4  1  0
 22 18  1  0
  1 23  1  0
  1 24  1  0
  1 25  1  0
  3 26  1  0
  3 27  1  0
  4 28  1  0
  5 29  1  0
  5 30  1  0
  6 31  1  0
  6 32  1  0
  7 33  1  0
  7 34  1  0
 11 35  1  0
 11 36  1  0
 12 37  1  0
 15 38  1  0
 16 39  1  0
 17 40  1  0
 17 41  1  0
 19 42  1  0
 20 43  1  0
 21 44  1  0
M  END
>  <Energy>  (772) 
621.91645052523575

>  <compound_id>  (772) 
46387

>  <target_id>  (772) 
1

>  <reference_id>  (772) 
64

>  <inspiration_ids>  (772) 
[99, 64]

>  <energy_score>  (772) 
464.7968392040025

>  <distance_score>  (772) 
11.743859853309896

>  <path>  (772) 
/opt/xchem-fragalysis-2/maxwin/BulkDock/SCRATCH/511025/C46387-P64/C46387-P64.minimised.mol

>  <scratch_subdir>  (772) 
/opt/xchem-fragalysis-2/maxwin/BulkDock/SCRATCH/511025/C46387-P64

>  <fragmenstein_runtime>  (772) 
35.51841473579407

>  <fragmenstein_outcome>  (772) 
too moved

>  <fragmenstein_mode>  (772) 
expansion

>  <fragmenstein_error>  (772) 


$$$$
C46389-P99
     RDKit          3D

 46 47  0  0  0  0  0  0  0  0999 V2000
   -6.0920  -18.0459   21.7800 C   0  0  0  0  0  0  0  0  0  0  0  0
   -7.6026  -17.3881   21.6125 N   0  0  0  0  0  0  0  0  0  0  0  0
   -8.1753  -18.8303   21.9570 C   0  0  0  0  0  0  0  0  0  0  0  0
   -8.1589  -16.1237   20.2028 C   0  0  0  0  0  0  0  0  0  0  0  0
   -6.9153  -17.4367   19.3983 C   0  0  0  0  0  0  0  0  0  0  0  0
   -5.5208  -17.7633   19.2700 O   0  0  0  0  0  0  0  0  0  0  0  0
   -8.2851  -14.0544   19.2712 C   0  0  0  0  0  0  0  0  0  0  0  0
   -9.4370  -13.6667   19.2938 O   0  0  0  0  0  0  0  0  0  0  0  0
   -7.0485  -12.8314   18.2537 N   0  0  0  0  0  0  0  0  0  0  0  0
   -7.3441  -11.1576   17.1074 C   0  0  0  0  0  0  0  0  0  0  0  0
   -8.2058  -11.1192   15.1466 C   0  0  0  0  0  0  0  0  0  0  0  0
   -7.9789   -9.3271   14.4482 C   0  0  0  0  0  0  0  0  0  0  0  0
   -7.0019   -7.8799   15.2312 N   0  0  0  0  0  0  0  0  0  0  0  0
   -7.8041   -6.3773   14.9666 C   0  0  0  0  0  0  0  0  0  0  0  0
   -8.6421   -5.7904   15.6570 O   0  0  0  0  0  0  0  0  0  0  0  0
   -7.3222   -5.3636   13.5551 C   0  0  0  0  0  0  0  0  0  0  0  0
   -6.0127   -5.7693   13.1158 O   0  0  0  0  0  0  0  0  0  0  0  0
   -8.2920   -4.7925   12.0336 C   0  0  0  0  0  0  0  0  0  0  0  0
   -9.5957   -4.6246   11.3660 C   0  0  0  0  0  0  0  0  0  0  0  0
   -9.3560   -4.5108    9.6632 N   0  0  0  0  0  0  0  0  0  0  0  0
   -8.0381   -4.6573    9.2984 C   0  0  0  0  0  0  0  0  0  0  0  0
   -7.3700   -4.8293   10.4790 N   0  0  0  0  0  0  0  0  0  0  0  0
   -7.0388   -9.0941   16.7979 C   0  0  0  0  0  0  0  0  0  0  0  0
   -5.9803  -19.0528   21.3469 H   0  0  0  0  0  0  0  0  0  0  0  0
   -5.9146  -18.1894   22.8599 H   0  0  0  0  0  0  0  0  0  0  0  0
   -5.2402  -17.4819   21.3985 H   0  0  0  0  0  0  0  0  0  0  0  0
   -9.2247  -19.0100   22.1940 H   0  0  0  0  0  0  0  0  0  0  0  0
   -7.7284  -19.1029   22.9163 H   0  0  0  0  0  0  0  0  0  0  0  0
   -7.9090  -19.6081   21.2277 H   0  0  0  0  0  0  0  0  0  0  0  0
   -7.5695  -15.8075   20.9302 H   0  0  0  0  0  0  0  0  0  0  0  0
   -7.0512  -18.3798   19.9050 H   0  0  0  0  0  0  0  0  0  0  0  0
   -7.2199  -17.5148   18.3271 H   0  0  0  0  0  0  0  0  0  0  0  0
   -5.4567  -18.6378   18.8465 H   0  0  0  0  0  0  0  0  0  0  0  0
   -6.1092  -13.1691   18.3599 H   0  0  0  0  0  0  0  0  0  0  0  0
   -6.2253  -11.0507   17.0492 H   0  0  0  0  0  0  0  0  0  0  0  0
   -8.0519  -11.5741   14.1192 H   0  0  0  0  0  0  0  0  0  0  0  0
   -9.1896  -11.6095   15.0031 H   0  0  0  0  0  0  0  0  0  0  0  0
   -7.4206   -9.4678   13.5104 H   0  0  0  0  0  0  0  0  0  0  0  0
   -8.9755   -8.9795   14.1506 H   0  0  0  0  0  0  0  0  0  0  0  0
   -7.2167   -4.4113   14.1089 H   0  0  0  0  0  0  0  0  0  0  0  0
   -5.4625   -5.7600   13.9127 H   0  0  0  0  0  0  0  0  0  0  0  0
  -10.1695   -3.7505   11.3154 H   0  0  0  0  0  0  0  0  0  0  0  0
   -9.9563   -3.8914    9.1551 H   0  0  0  0  0  0  0  0  0  0  0  0
   -7.6687   -4.5863    8.2814 H   0  0  0  0  0  0  0  0  0  0  0  0
   -6.1868   -8.6939   17.3087 H   0  0  0  0  0  0  0  0  0  0  0  0
   -7.6600   -8.6077   17.5627 H   0  0  0  0  0  0  0  0  0  0  0  0
  1  2  1  0
  2  3  1  0
  2  4  1  0
  4  5  1  0
  5  6  1  0
  4  7  1  0
  7  8  2  0
  7  9  1  0
  9 10  1  0
 10 11  1  0
 11 12  1  0
 12 13  1  0
 13 14  1  0
 14 15  2  0
 14 16  1  0
 16 17  1  0
 16 18  1  0
 18 19  2  0
 19 20  1  0
 20 21  1  0
 21 22  2  0
 13 23  1  0
 23 10  1  0
 22 18  1  0
  1 24  1  0
  1 25  1  0
  1 26  1  0
  3 27  1  0
  3 28  1  0
  3 29  1  0
  4 30  1  0
  5 31  1  0
  5 32  1  0
  6 33  1  0
  9 34  1  0
 10 35  1  0
 11 36  1  0
 11 37  1  0
 12 38  1  0
 12 39  1  0
 16 40  1  0
 17 41  1  0
 19 42  1  0
 20 43  1  0
 21 44  1  0
 23 45  1  0
 23 46  1  0
M  END
>  <Energy>  (773) 
1596.7124923457732

>  <compound_id>  (773) 
46389

>  <target_id>  (773) 
1

>  <reference_id>  (773) 
99

>  <inspiration_ids>  (773) 
[99, 64]

>  <energy_score>  (773) 
1420.2334499025515

>  <distance_score>  (773) 
10.680297594601141

>  <path>  (773) 
/opt/xchem-fragalysis-2/maxwin/BulkDock/SCRATCH/511025/C46389-P99/C46389-P99.minimised.mol

>  <scratch_subdir>  (773) 
/opt/xchem-fragalysis-2/maxwin/BulkDock/SCRATCH/511025/C46389-P99

>  <fragmenstein_runtime>  (773) 
31.740741968154907

>  <fragmenstein_outcome>  (773) 
too moved

>  <fragmenstein_mode>  (773) 
expansion

>  <fragmenstein_error>  (773) 


$$$$
C46389-P64
     RDKit          3D

 46 47  0  0  0  0  0  0  0  0999 V2000
   -7.1594  -17.6384   23.0932 C   0  0  0  0  0  0  0  0  0  0  0  0
   -7.9397  -17.4821   21.7920 N   0  0  0  0  0  0  0  0  0  0  0  0
   -8.0910  -19.1041   21.6100 C   0  0  0  0  0  0  0  0  0  0  0  0
   -8.0336  -16.1365   20.3396 C   0  0  0  0  0  0  0  0  0  0  0  0
   -6.6361  -17.2846   20.0052 C   0  0  0  0  0  0  0  0  0  0  0  0
   -6.3346  -17.8105   18.7496 O   0  0  0  0  0  0  0  0  0  0  0  0
   -8.3098  -14.0451   19.5844 C   0  0  0  0  0  0  0  0  0  0  0  0
   -9.4543  -13.7112   19.4449 O   0  0  0  0  0  0  0  0  0  0  0  0
   -6.9707  -12.7796   18.9615 N   0  0  0  0  0  0  0  0  0  0  0  0
   -7.0930  -11.0754   17.9899 C   0  0  0  0  0  0  0  0  0  0  0  0
   -6.6260  -10.4852   16.5081 C   0  0  0  0  0  0  0  0  0  0  0  0
   -7.1281   -8.9444   16.2823 C   0  0  0  0  0  0  0  0  0  0  0  0
   -6.7414   -8.1836   17.3178 N   0  0  0  0  0  0  0  0  0  0  0  0
   -6.2968   -6.7161   17.2353 C   0  0  0  0  0  0  0  0  0  0  0  0
   -5.1795   -6.2384   17.0646 O   0  0  0  0  0  0  0  0  0  0  0  0
   -7.3607   -5.5441   17.4799 C   0  0  0  0  0  0  0  0  0  0  0  0
   -8.4543   -5.5866   18.3674 O   0  0  0  0  0  0  0  0  0  0  0  0
   -7.7516   -4.8280   16.1960 C   0  0  0  0  0  0  0  0  0  0  0  0
   -7.5514   -3.4966   15.8708 C   0  0  0  0  0  0  0  0  0  0  0  0
   -8.3262   -3.2646   14.7721 N   0  0  0  0  0  0  0  0  0  0  0  0
   -8.9000   -4.4474   14.4276 C   0  0  0  0  0  0  0  0  0  0  0  0
   -8.5474   -5.4133   15.2403 N   0  0  0  0  0  0  0  0  0  0  0  0
   -5.9280   -9.4671   17.3141 C   0  0  0  0  0  0  0  0  0  0  0  0
   -7.6399  -18.4285   23.6570 H   0  0  0  0  0  0  0  0  0  0  0  0
   -6.1342  -18.0053   22.9266 H   0  0  0  0  0  0  0  0  0  0  0  0
   -7.1669  -16.8547   23.8531 H   0  0  0  0  0  0  0  0  0  0  0  0
   -7.2411  -19.6354   22.0671 H   0  0  0  0  0  0  0  0  0  0  0  0
   -8.0987  -19.5613   20.6182 H   0  0  0  0  0  0  0  0  0  0  0  0
   -8.9982  -19.4127   22.1418 H   0  0  0  0  0  0  0  0  0  0  0  0
   -7.8478  -15.8253   21.2522 H   0  0  0  0  0  0  0  0  0  0  0  0
   -5.7413  -17.0292   20.5419 H   0  0  0  0  0  0  0  0  0  0  0  0
   -6.6918  -18.2533   20.4516 H   0  0  0  0  0  0  0  0  0  0  0  0
   -5.6451  -18.4891   18.8618 H   0  0  0  0  0  0  0  0  0  0  0  0
   -6.0814  -13.1206   19.2047 H   0  0  0  0  0  0  0  0  0  0  0  0
   -6.1272  -11.6433   17.9873 H   0  0  0  0  0  0  0  0  0  0  0  0
   -5.8966  -10.3578   15.6671 H   0  0  0  0  0  0  0  0  0  0  0  0
   -5.6302  -11.0487   16.6449 H   0  0  0  0  0  0  0  0  0  0  0  0
   -7.0027   -7.9671   15.6771 H   0  0  0  0  0  0  0  0  0  0  0  0
   -7.5673   -9.1951   15.1817 H   0  0  0  0  0  0  0  0  0  0  0  0
   -6.7175   -4.8035   17.9872 H   0  0  0  0  0  0  0  0  0  0  0  0
   -8.0840   -5.7135   19.2533 H   0  0  0  0  0  0  0  0  0  0  0  0
   -7.0156   -2.7029   16.3720 H   0  0  0  0  0  0  0  0  0  0  0  0
   -8.4736   -2.3763   14.3128 H   0  0  0  0  0  0  0  0  0  0  0  0
   -9.5578   -4.5438   13.5778 H   0  0  0  0  0  0  0  0  0  0  0  0
   -5.3093   -8.5878   17.9092 H   0  0  0  0  0  0  0  0  0  0  0  0
   -4.7782   -9.7586   16.9943 H   0  0  0  0  0  0  0  0  0  0  0  0
  1  2  1  0
  2  3  1  0
  2  4  1  0
  4  5  1  0
  5  6  1  0
  4  7  1  0
  7  8  2  0
  7  9  1  0
  9 10  1  0
 10 11  1  0
 11 12  1  0
 12 13  1  0
 13 14  1  0
 14 15  2  0
 14 16  1  0
 16 17  1  0
 16 18  1  0
 18 19  2  0
 19 20  1  0
 20 21  1  0
 21 22  2  0
 13 23  1  0
 23 10  1  0
 22 18  1  0
  1 24  1  0
  1 25  1  0
  1 26  1  0
  3 27  1  0
  3 28  1  0
  3 29  1  0
  4 30  1  0
  5 31  1  0
  5 32  1  0
  6 33  1  0
  9 34  1  0
 10 35  1  0
 11 36  1  0
 11 37  1  0
 12 38  1  0
 12 39  1  0
 16 40  1  0
 17 41  1  0
 19 42  1  0
 20 43  1  0
 21 44  1  0
 23 45  1  0
 23 46  1  0
M  END
>  <Energy>  (774) 
1416.3660248827048

>  <compound_id>  (774) 
46389

>  <target_id>  (774) 
1

>  <reference_id>  (774) 
64

>  <inspiration_ids>  (774) 
[99, 64]

>  <energy_score>  (774) 
1239.8869824394465

>  <distance_score>  (774) 
11.77602117312742

>  <path>  (774) 
/opt/xchem-fragalysis-2/maxwin/BulkDock/SCRATCH/511025/C46389-P64/C46389-P64.minimised.mol

>  <scratch_subdir>  (774) 
/opt/xchem-fragalysis-2/maxwin/BulkDock/SCRATCH/511025/C46389-P64

>  <fragmenstein_runtime>  (774) 
45.51645517349243

>  <fragmenstein_outcome>  (774) 
too moved

>  <fragmenstein_mode>  (774) 
expansion

>  <fragmenstein_error>  (774) 


$$$$
C46390-P99
     RDKit          3D

 48 49  0  0  0  0  0  0  0  0999 V2000
   -5.6972  -23.5929   33.3763 C   0  0  0  0  0  0  0  0  0  0  0  0
   -5.0394  -24.1376   32.0164 C   0  0  0  0  0  0  0  0  0  0  0  0
   -3.7217  -22.6614   31.7813 C   0  0  0  0  0  0  0  0  0  0  0  0
   -3.1573  -22.4028   32.8319 O   0  0  0  0  0  0  0  0  0  0  0  0
   -3.5983  -21.8767   30.2999 N   0  0  0  0  0  0  0  0  0  0  0  0
   -2.8337  -20.5777   29.8993 C   0  0  0  0  0  0  0  0  0  0  0  0
   -2.8352  -19.6979   28.3643 C   0  0  0  0  0  0  0  0  0  0  0  0
   -2.9157  -20.3511   27.0258 C   0  0  0  0  0  0  0  0  0  0  0  0
   -4.0378  -19.5737   26.3453 C   0  0  0  0  0  0  0  0  0  0  0  0
   -4.1479  -18.0849   26.5303 N   0  0  0  0  0  0  0  0  0  0  0  0
   -3.3715  -17.3752   25.4793 C   0  0  0  0  0  0  0  0  0  0  0  0
   -2.2207  -17.0023   25.4738 O   0  0  0  0  0  0  0  0  0  0  0  0
   -4.3158  -17.0985   24.1226 C   0  0  0  0  0  0  0  0  0  0  0  0
   -3.8062  -17.6322   22.8796 O   0  0  0  0  0  0  0  0  0  0  0  0
   -4.7291  -15.6349   23.8110 C   0  0  0  0  0  0  0  0  0  0  0  0
   -4.3973  -14.8580   22.6970 C   0  0  0  0  0  0  0  0  0  0  0  0
   -5.2460  -13.7845   22.7079 N   0  0  0  0  0  0  0  0  0  0  0  0
   -6.0279  -13.9147   23.8235 C   0  0  0  0  0  0  0  0  0  0  0  0
   -5.7662  -15.0210   24.4873 N   0  0  0  0  0  0  0  0  0  0  0  0
   -3.7553  -18.4782   28.0297 C   0  0  0  0  0  0  0  0  0  0  0  0
   -5.9083  -25.1911   30.6857 N   0  0  0  0  0  0  0  0  0  0  0  0
   -5.4106  -26.2874   29.8250 C   0  0  0  0  0  0  0  0  0  0  0  0
   -7.4453  -25.7812   30.7438 C   0  0  0  0  0  0  0  0  0  0  0  0
   -5.7157  -22.4974   33.4224 H   0  0  0  0  0  0  0  0  0  0  0  0
   -5.0674  -23.8867   34.2285 H   0  0  0  0  0  0  0  0  0  0  0  0
   -6.7000  -23.9409   33.5878 H   0  0  0  0  0  0  0  0  0  0  0  0
   -4.5903  -24.9474   32.5884 H   0  0  0  0  0  0  0  0  0  0  0  0
   -4.1265  -22.3816   29.6062 H   0  0  0  0  0  0  0  0  0  0  0  0
   -3.0744  -19.8423   30.6750 H   0  0  0  0  0  0  0  0  0  0  0  0
   -1.7842  -20.8605   30.0471 H   0  0  0  0  0  0  0  0  0  0  0  0
   -1.8271  -19.2556   28.4230 H   0  0  0  0  0  0  0  0  0  0  0  0
   -3.1433  -21.4192   27.0842 H   0  0  0  0  0  0  0  0  0  0  0  0
   -1.9772  -20.2296   26.4728 H   0  0  0  0  0  0  0  0  0  0  0  0
   -5.0216  -19.9876   26.6010 H   0  0  0  0  0  0  0  0  0  0  0  0
   -3.9551  -19.7600   25.2651 H   0  0  0  0  0  0  0  0  0  0  0  0
   -5.2504  -17.6443   24.3116 H   0  0  0  0  0  0  0  0  0  0  0  0
   -4.5098  -17.4909   22.2252 H   0  0  0  0  0  0  0  0  0  0  0  0
   -3.6845  -15.0185   21.8998 H   0  0  0  0  0  0  0  0  0  0  0  0
   -5.3021  -13.0428   22.0224 H   0  0  0  0  0  0  0  0  0  0  0  0
   -6.7816  -13.1836   24.0840 H   0  0  0  0  0  0  0  0  0  0  0  0
   -4.7040  -18.5028   28.5650 H   0  0  0  0  0  0  0  0  0  0  0  0
   -3.2507  -17.5747   28.3995 H   0  0  0  0  0  0  0  0  0  0  0  0
   -6.0788  -26.9778   29.2997 H   0  0  0  0  0  0  0  0  0  0  0  0
   -4.8247  -26.9963   30.3953 H   0  0  0  0  0  0  0  0  0  0  0  0
   -4.9425  -25.7640   29.0035 H   0  0  0  0  0  0  0  0  0  0  0  0
   -7.6460  -26.6986   30.1837 H   0  0  0  0  0  0  0  0  0  0  0  0
   -8.0154  -25.7276   31.6812 H   0  0  0  0  0  0  0  0  0  0  0  0
   -8.0028  -25.1275   30.1382 H   0  0  0  0  0  0  0  0  0  0  0  0
  1  2  1  0
  2  3  1  0
  3  4  2  0
  3  5  1  0
  5  6  1  0
  6  7  1  0
  7  8  1  0
  8  9  1  0
  9 10  1  0
 10 11  1  0
 11 12  2  0
 11 13  1  0
 13 14  1  0
 13 15  1  0
 15 16  2  0
 16 17  1  0
 17 18  1  0
 18 19  2  0
 10 20  1  0
  2 21  1  0
 21 22  1  0
 21 23  1  0
 20  7  1  0
 19 15  1  0
  1 24  1  0
  1 25  1  0
  1 26  1  0
  2 27  1  0
  5 28  1  0
  6 29  1  0
  6 30  1  0
  7 31  1  0
  8 32  1  0
  8 33  1  0
  9 34  1  0
  9 35  1  0
 13 36  1  0
 14 37  1  0
 16 38  1  0
 17 39  1  0
 18 40  1  0
 20 41  1  0
 20 42  1  0
 22 43  1  0
 22 44  1  0
 22 45  1  0
 23 46  1  0
 23 47  1  0
 23 48  1  0
M  END
>  <Energy>  (775) 
445.11950490291639

>  <compound_id>  (775) 
46390

>  <target_id>  (775) 
1

>  <reference_id>  (775) 
99

>  <inspiration_ids>  (775) 
[99, 64]

>  <energy_score>  (775) 
308.3327520493368

>  <distance_score>  (775) 
20.26306458398057

>  <path>  (775) 
/opt/xchem-fragalysis-2/maxwin/BulkDock/SCRATCH/511025/C46390-P99/C46390-P99.minimised.mol

>  <scratch_subdir>  (775) 
/opt/xchem-fragalysis-2/maxwin/BulkDock/SCRATCH/511025/C46390-P99

>  <fragmenstein_runtime>  (775) 
40.68696427345276

>  <fragmenstein_outcome>  (775) 
too moved

>  <fragmenstein_mode>  (775) 
expansion

>  <fragmenstein_error>  (775) 


$$$$
C46390-P64
     RDKit          3D

 48 49  0  0  0  0  0  0  0  0999 V2000
   -8.4388   -8.3361   24.6425 C   0  0  0  0  0  0  0  0  0  0  0  0
   -7.7501   -6.9392   24.6824 C   0  0  0  0  0  0  0  0  0  0  0  0
   -8.2056   -5.9656   23.4766 C   0  0  0  0  0  0  0  0  0  0  0  0
   -9.3779   -5.7463   23.3326 O   0  0  0  0  0  0  0  0  0  0  0  0
   -7.0541   -5.4218   22.7934 N   0  0  0  0  0  0  0  0  0  0  0  0
   -6.9430   -4.3607   21.7786 C   0  0  0  0  0  0  0  0  0  0  0  0
   -8.1279   -4.0116   20.8682 C   0  0  0  0  0  0  0  0  0  0  0  0
   -8.2164   -4.7105   19.5545 C   0  0  0  0  0  0  0  0  0  0  0  0
   -8.8664   -3.5683   18.8137 C   0  0  0  0  0  0  0  0  0  0  0  0
   -7.9972   -2.3381   18.8440 N   0  0  0  0  0  0  0  0  0  0  0  0
   -6.8543   -2.5055   17.9634 C   0  0  0  0  0  0  0  0  0  0  0  0
   -5.7507   -2.9431   18.1871 O   0  0  0  0  0  0  0  0  0  0  0  0
   -7.1837   -1.9411   16.5174 C   0  0  0  0  0  0  0  0  0  0  0  0
   -7.8970   -0.7055   16.5314 O   0  0  0  0  0  0  0  0  0  0  0  0
   -7.9205   -2.9515   15.6923 C   0  0  0  0  0  0  0  0  0  0  0  0
   -8.8805   -2.7420   14.7204 C   0  0  0  0  0  0  0  0  0  0  0  0
   -9.2478   -3.9803   14.3006 N   0  0  0  0  0  0  0  0  0  0  0  0
   -8.6168   -4.8713   15.1000 C   0  0  0  0  0  0  0  0  0  0  0  0
   -7.7578   -4.3006   15.9015 N   0  0  0  0  0  0  0  0  0  0  0  0
   -8.1340   -2.5531   20.3438 C   0  0  0  0  0  0  0  0  0  0  0  0
   -6.2534   -6.9203   24.8263 N   0  0  0  0  0  0  0  0  0  0  0  0
   -5.6986   -8.1515   25.3986 C   0  0  0  0  0  0  0  0  0  0  0  0
   -5.8470   -5.7961   25.6979 C   0  0  0  0  0  0  0  0  0  0  0  0
   -9.5155   -8.2188   24.4799 H   0  0  0  0  0  0  0  0  0  0  0  0
   -8.3053   -8.8725   25.5869 H   0  0  0  0  0  0  0  0  0  0  0  0
   -8.0577   -8.9517   23.8320 H   0  0  0  0  0  0  0  0  0  0  0  0
   -8.1749   -6.4574   25.5765 H   0  0  0  0  0  0  0  0  0  0  0  0
   -6.2058   -5.7778   23.2371 H   0  0  0  0  0  0  0  0  0  0  0  0
   -6.0525   -4.5893   21.1836 H   0  0  0  0  0  0  0  0  0  0  0  0
   -6.6920   -3.4749   22.3743 H   0  0  0  0  0  0  0  0  0  0  0  0
   -9.0575   -4.1483   21.4331 H   0  0  0  0  0  0  0  0  0  0  0  0
   -8.8369   -5.6062   19.5725 H   0  0  0  0  0  0  0  0  0  0  0  0
   -7.2411   -4.9666   19.1365 H   0  0  0  0  0  0  0  0  0  0  0  0
   -9.8882   -3.3310   19.1630 H   0  0  0  0  0  0  0  0  0  0  0  0
   -9.0321   -3.8704   17.7846 H   0  0  0  0  0  0  0  0  0  0  0  0
   -6.2217   -1.7368   16.0328 H   0  0  0  0  0  0  0  0  0  0  0  0
   -8.5906   -0.8438   17.2013 H   0  0  0  0  0  0  0  0  0  0  0  0
   -9.2966   -1.8408   14.3003 H   0  0  0  0  0  0  0  0  0  0  0  0
   -9.8708   -4.2185   13.5473 H   0  0  0  0  0  0  0  0  0  0  0  0
   -8.7872   -5.9247   15.0149 H   0  0  0  0  0  0  0  0  0  0  0  0
   -9.0342   -2.0144   20.6804 H   0  0  0  0  0  0  0  0  0  0  0  0
   -7.2891   -2.0012   20.7754 H   0  0  0  0  0  0  0  0  0  0  0  0
   -6.1009   -8.3648   26.3955 H   0  0  0  0  0  0  0  0  0  0  0  0
   -4.6081   -8.0739   25.4833 H   0  0  0  0  0  0  0  0  0  0  0  0
   -5.8836   -9.0134   24.7515 H   0  0  0  0  0  0  0  0  0  0  0  0
   -4.7551   -5.7043   25.7107 H   0  0  0  0  0  0  0  0  0  0  0  0
   -6.2359   -4.8401   25.3317 H   0  0  0  0  0  0  0  0  0  0  0  0
   -6.1948   -5.9304   26.7290 H   0  0  0  0  0  0  0  0  0  0  0  0
  1  2  1  0
  2  3  1  0
  3  4  2  0
  3  5  1  0
  5  6  1  0
  6  7  1  0
  7  8  1  0
  8  9  1  0
  9 10  1  0
 10 11  1  0
 11 12  2  0
 11 13  1  0
 13 14  1  0
 13 15  1  0
 15 16  2  0
 16 17  1  0
 17 18  1  0
 18 19  2  0
 10 20  1  0
  2 21  1  0
 21 22  1  0
 21 23  1  0
 20  7  1  0
 19 15  1  0
  1 24  1  0
  1 25  1  0
  1 26  1  0
  2 27  1  0
  5 28  1  0
  6 29  1  0
  6 30  1  0
  7 31  1  0
  8 32  1  0
  8 33  1  0
  9 34  1  0
  9 35  1  0
 13 36  1  0
 14 37  1  0
 16 38  1  0
 17 39  1  0
 18 40  1  0
 20 41  1  0
 20 42  1  0
 22 43  1  0
 22 44  1  0
 22 45  1  0
 23 46  1  0
 23 47  1  0
 23 48  1  0
M  END
>  <Energy>  (776) 
170.59987281751324

>  <compound_id>  (776) 
46390

>  <target_id>  (776) 
1

>  <reference_id>  (776) 
64

>  <inspiration_ids>  (776) 
[99, 64]

>  <energy_score>  (776) 
33.81311996394567

>  <distance_score>  (776) 
14.718728930880204

>  <path>  (776) 
/opt/xchem-fragalysis-2/maxwin/BulkDock/SCRATCH/511025/C46390-P64/C46390-P64.minimised.mol

>  <scratch_subdir>  (776) 
/opt/xchem-fragalysis-2/maxwin/BulkDock/SCRATCH/511025/C46390-P64

>  <fragmenstein_runtime>  (776) 
39.50710964202881

>  <fragmenstein_outcome>  (776) 
too moved

>  <fragmenstein_mode>  (776) 
expansion

>  <fragmenstein_error>  (776) 


$$$$
C46391-P99
     RDKit          3D

 48 49  0  0  0  0  0  0  0  0999 V2000
   -9.7138  -16.1157   22.1705 C   0  0  0  0  0  0  0  0  0  0  0  0
   -8.3878  -15.6861   21.7219 N   0  0  0  0  0  0  0  0  0  0  0  0
   -7.4475  -15.7790   22.8452 C   0  0  0  0  0  0  0  0  0  0  0  0
   -8.3468  -14.2818   21.1535 C   0  0  0  0  0  0  0  0  0  0  0  0
   -8.8698  -14.1172   19.6544 C   0  0  0  0  0  0  0  0  0  0  0  0
   -8.6094  -12.8134   18.3295 C   0  0  0  0  0  0  0  0  0  0  0  0
   -7.7106  -11.7958   17.0753 C   0  0  0  0  0  0  0  0  0  0  0  0
   -6.7248  -11.3083   17.5835 O   0  0  0  0  0  0  0  0  0  0  0  0
   -8.2090  -11.3465   15.2978 N   0  0  0  0  0  0  0  0  0  0  0  0
   -7.4487  -10.0326   14.0299 C   0  0  0  0  0  0  0  0  0  0  0  0
   -8.1595   -8.7942   13.8923 C   0  0  0  0  0  0  0  0  0  0  0  0
   -7.8747   -8.5026   12.4665 C   0  0  0  0  0  0  0  0  0  0  0  0
   -6.2931   -7.9548   11.5074 N   0  0  0  0  0  0  0  0  0  0  0  0
   -5.7850   -6.5330   11.1278 C   0  0  0  0  0  0  0  0  0  0  0  0
   -5.0680   -5.7920   11.7154 O   0  0  0  0  0  0  0  0  0  0  0  0
   -6.6741   -5.9158    9.4470 C   0  0  0  0  0  0  0  0  0  0  0  0
   -7.5157   -4.9194   10.0354 O   0  0  0  0  0  0  0  0  0  0  0  0
   -7.1601   -4.8511    7.9637 C   0  0  0  0  0  0  0  0  0  0  0  0
   -6.5521   -3.8859    7.1516 C   0  0  0  0  0  0  0  0  0  0  0  0
   -7.5139   -3.4299    6.2942 N   0  0  0  0  0  0  0  0  0  0  0  0
   -8.6725   -4.0694    6.5959 C   0  0  0  0  0  0  0  0  0  0  0  0
   -8.5011   -4.9186    7.5795 N   0  0  0  0  0  0  0  0  0  0  0  0
   -5.8470   -9.1306   13.0370 C   0  0  0  0  0  0  0  0  0  0  0  0
   -9.6882  -17.1522   22.5252 H   0  0  0  0  0  0  0  0  0  0  0  0
  -10.1023  -15.4806   22.9743 H   0  0  0  0  0  0  0  0  0  0  0  0
  -10.4226  -16.0846   21.3364 H   0  0  0  0  0  0  0  0  0  0  0  0
   -7.4272  -16.7977   23.2491 H   0  0  0  0  0  0  0  0  0  0  0  0
   -6.4264  -15.5572   22.5157 H   0  0  0  0  0  0  0  0  0  0  0  0
   -7.7080  -15.0897   23.6566 H   0  0  0  0  0  0  0  0  0  0  0  0
   -7.3112  -13.9259   21.1838 H   0  0  0  0  0  0  0  0  0  0  0  0
   -8.9303  -13.6420   21.8271 H   0  0  0  0  0  0  0  0  0  0  0  0
   -8.8439  -15.1254   19.2398 H   0  0  0  0  0  0  0  0  0  0  0  0
   -9.9316  -13.9845   19.8265 H   0  0  0  0  0  0  0  0  0  0  0  0
   -9.5138  -12.2399   18.5183 H   0  0  0  0  0  0  0  0  0  0  0  0
   -7.7409  -12.5688   18.9375 H   0  0  0  0  0  0  0  0  0  0  0  0
   -9.0093  -11.9191   15.0231 H   0  0  0  0  0  0  0  0  0  0  0  0
   -8.0688  -10.6760   13.4086 H   0  0  0  0  0  0  0  0  0  0  0  0
   -9.2235   -8.9238   14.1044 H   0  0  0  0  0  0  0  0  0  0  0  0
   -7.6834   -7.9821   14.3993 H   0  0  0  0  0  0  0  0  0  0  0  0
   -8.4850   -8.6117   11.5072 H   0  0  0  0  0  0  0  0  0  0  0  0
   -8.3673   -9.4766   12.2287 H   0  0  0  0  0  0  0  0  0  0  0  0
   -5.7564   -5.4622    9.2620 H   0  0  0  0  0  0  0  0  0  0  0  0
   -8.3174   -4.7539    9.4837 H   0  0  0  0  0  0  0  0  0  0  0  0
   -5.5536   -3.4714    7.1297 H   0  0  0  0  0  0  0  0  0  0  0  0
   -7.3997   -2.7158    5.5901 H   0  0  0  0  0  0  0  0  0  0  0  0
   -9.6023   -3.8810    6.0738 H   0  0  0  0  0  0  0  0  0  0  0  0
   -5.0344   -8.5216   13.2927 H   0  0  0  0  0  0  0  0  0  0  0  0
   -5.1220   -9.9521   12.9864 H   0  0  0  0  0  0  0  0  0  0  0  0
  1  2  1  0
  2  3  1  0
  2  4  1  0
  4  5  1  0
  5  6  1  0
  6  7  1  0
  7  8  2  0
  7  9  1  0
  9 10  1  0
 10 11  1  0
 11 12  1  0
 12 13  1  0
 13 14  1  0
 14 15  2  0
 14 16  1  0
 16 17  1  0
 16 18  1  0
 18 19  2  0
 19 20  1  0
 20 21  1  0
 21 22  2  0
 13 23  1  0
 23 10  1  0
 22 18  1  0
  1 24  1  0
  1 25  1  0
  1 26  1  0
  3 27  1  0
  3 28  1  0
  3 29  1  0
  4 30  1  0
  4 31  1  0
  5 32  1  0
  5 33  1  0
  6 34  1  0
  6 35  1  0
  9 36  1  0
 10 37  1  0
 11 38  1  0
 11 39  1  0
 12 40  1  0
 12 41  1  0
 16 42  1  0
 17 43  1  0
 19 44  1  0
 20 45  1  0
 21 46  1  0
 23 47  1  0
 23 48  1  0
M  END
>  <Energy>  (777) 
1012.2552446290484

>  <compound_id>  (777) 
46391

>  <target_id>  (777) 
1

>  <reference_id>  (777) 
99

>  <inspiration_ids>  (777) 
[99, 64]

>  <energy_score>  (777) 
913.6274879160023

>  <distance_score>  (777) 
10.336633433742941

>  <path>  (777) 
/opt/xchem-fragalysis-2/maxwin/BulkDock/SCRATCH/511025/C46391-P99/C46391-P99.minimised.mol

>  <scratch_subdir>  (777) 
/opt/xchem-fragalysis-2/maxwin/BulkDock/SCRATCH/511025/C46391-P99

>  <fragmenstein_runtime>  (777) 
47.9108247756958

>  <fragmenstein_outcome>  (777) 
too moved

>  <fragmenstein_mode>  (777) 
expansion

>  <fragmenstein_error>  (777) 


$$$$
C46391-P64
     RDKit          3D

 48 49  0  0  0  0  0  0  0  0999 V2000
  -10.7984   -8.3338   23.4818 C   0  0  0  0  0  0  0  0  0  0  0  0
   -9.7954   -7.8302   22.5052 N   0  0  0  0  0  0  0  0  0  0  0  0
   -8.7864   -7.0673   23.2656 C   0  0  0  0  0  0  0  0  0  0  0  0
  -10.4010   -6.9735   21.4273 C   0  0  0  0  0  0  0  0  0  0  0  0
   -9.4373   -6.5957   20.2041 C   0  0  0  0  0  0  0  0  0  0  0  0
   -9.9118   -5.5693   19.0325 C   0  0  0  0  0  0  0  0  0  0  0  0
   -8.7527   -5.0114   18.0237 C   0  0  0  0  0  0  0  0  0  0  0  0
   -7.6907   -4.7850   18.5437 O   0  0  0  0  0  0  0  0  0  0  0  0
   -9.1784   -4.9017   16.5875 N   0  0  0  0  0  0  0  0  0  0  0  0
   -8.3855   -4.4672   15.3216 C   0  0  0  0  0  0  0  0  0  0  0  0
   -6.9466   -4.5333   15.6351 C   0  0  0  0  0  0  0  0  0  0  0  0
   -6.3318   -4.4140   14.2492 C   0  0  0  0  0  0  0  0  0  0  0  0
   -6.9879   -5.2385   12.6468 N   0  0  0  0  0  0  0  0  0  0  0  0
   -5.9469   -6.5112   11.6544 C   0  0  0  0  0  0  0  0  0  0  0  0
   -5.9251   -7.7698   11.7763 O   0  0  0  0  0  0  0  0  0  0  0  0
   -4.6748   -6.0023   10.4497 C   0  0  0  0  0  0  0  0  0  0  0  0
   -4.5253   -7.4580   10.4163 O   0  0  0  0  0  0  0  0  0  0  0  0
   -3.7114   -4.9055    9.1030 C   0  0  0  0  0  0  0  0  0  0  0  0
   -3.5533   -4.6617    7.6693 C   0  0  0  0  0  0  0  0  0  0  0  0
   -4.1857   -3.4470    7.3213 N   0  0  0  0  0  0  0  0  0  0  0  0
   -3.4332   -2.5985    8.0402 C   0  0  0  0  0  0  0  0  0  0  0  0
   -3.0410   -3.3947    9.0252 N   0  0  0  0  0  0  0  0  0  0  0  0
   -8.3548   -5.4539   13.9717 C   0  0  0  0  0  0  0  0  0  0  0  0
  -11.1813   -7.5223   24.1117 H   0  0  0  0  0  0  0  0  0  0  0  0
  -10.3505   -9.0986   24.1248 H   0  0  0  0  0  0  0  0  0  0  0  0
  -11.6628   -8.7771   22.9774 H   0  0  0  0  0  0  0  0  0  0  0  0
   -9.2140   -6.1747   23.7363 H   0  0  0  0  0  0  0  0  0  0  0  0
   -7.9558   -6.7551   22.6272 H   0  0  0  0  0  0  0  0  0  0  0  0
   -8.3474   -7.6946   24.0499 H   0  0  0  0  0  0  0  0  0  0  0  0
  -10.7737   -6.0393   21.8666 H   0  0  0  0  0  0  0  0  0  0  0  0
  -11.2722   -7.4903   21.0208 H   0  0  0  0  0  0  0  0  0  0  0  0
   -8.5351   -6.1440   20.6279 H   0  0  0  0  0  0  0  0  0  0  0  0
   -9.1292   -7.5133   19.7011 H   0  0  0  0  0  0  0  0  0  0  0  0
  -10.6931   -6.0286   18.4361 H   0  0  0  0  0  0  0  0  0  0  0  0
  -10.3375   -4.6819   19.5151 H   0  0  0  0  0  0  0  0  0  0  0  0
  -10.1703   -5.0922   16.5186 H   0  0  0  0  0  0  0  0  0  0  0  0
   -8.7322   -3.4663   15.0429 H   0  0  0  0  0  0  0  0  0  0  0  0
   -6.6991   -5.4523   16.1706 H   0  0  0  0  0  0  0  0  0  0  0  0
   -6.6243   -3.7060   16.2790 H   0  0  0  0  0  0  0  0  0  0  0  0
   -6.5493   -3.3593   14.1385 H   0  0  0  0  0  0  0  0  0  0  0  0
   -5.2488   -4.4258   14.2692 H   0  0  0  0  0  0  0  0  0  0  0  0
   -4.4797   -5.3470   11.3237 H   0  0  0  0  0  0  0  0  0  0  0  0
   -5.3731   -7.9419   10.4278 H   0  0  0  0  0  0  0  0  0  0  0  0
   -3.1833   -5.2342    6.8612 H   0  0  0  0  0  0  0  0  0  0  0  0
   -4.6318   -3.2425    6.4416 H   0  0  0  0  0  0  0  0  0  0  0  0
   -3.2729   -1.5333    7.9377 H   0  0  0  0  0  0  0  0  0  0  0  0
   -8.3880   -6.3847   14.5855 H   0  0  0  0  0  0  0  0  0  0  0  0
   -9.2680   -5.1135   13.4642 H   0  0  0  0  0  0  0  0  0  0  0  0
  1  2  1  0
  2  3  1  0
  2  4  1  0
  4  5  1  0
  5  6  1  0
  6  7  1  0
  7  8  2  0
  7  9  1  0
  9 10  1  0
 10 11  1  0
 11 12  1  0
 12 13  1  0
 13 14  1  0
 14 15  2  0
 14 16  1  0
 16 17  1  0
 16 18  1  0
 18 19  2  0
 19 20  1  0
 20 21  1  0
 21 22  2  0
 13 23  1  0
 23 10  1  0
 22 18  1  0
  1 24  1  0
  1 25  1  0
  1 26  1  0
  3 27  1  0
  3 28  1  0
  3 29  1  0
  4 30  1  0
  4 31  1  0
  5 32  1  0
  5 33  1  0
  6 34  1  0
  6 35  1  0
  9 36  1  0
 10 37  1  0
 11 38  1  0
 11 39  1  0
 12 40  1  0
 12 41  1  0
 16 42  1  0
 17 43  1  0
 19 44  1  0
 20 45  1  0
 21 46  1  0
 23 47  1  0
 23 48  1  0
M  END
>  <Energy>  (778) 
695.32470105444395

>  <compound_id>  (778) 
46391

>  <target_id>  (778) 
1

>  <reference_id>  (778) 
64

>  <inspiration_ids>  (778) 
[99, 64]

>  <energy_score>  (778) 
596.6969443413914

>  <distance_score>  (778) 
13.547872524568877

>  <path>  (778) 
/opt/xchem-fragalysis-2/maxwin/BulkDock/SCRATCH/511025/C46391-P64/C46391-P64.minimised.mol

>  <scratch_subdir>  (778) 
/opt/xchem-fragalysis-2/maxwin/BulkDock/SCRATCH/511025/C46391-P64

>  <fragmenstein_runtime>  (778) 
53.245505571365356

>  <fragmenstein_outcome>  (778) 
too moved

>  <fragmenstein_mode>  (778) 
expansion

>  <fragmenstein_error>  (778) 


$$$$
C92075-P28
     RDKit          3D

 44 45  0  0  0  0  0  0  0  0999 V2000
  -11.3548  -23.0740   27.8246 C   0  0  0  0  0  0  0  0  0  0  0  0
  -11.6165  -24.0023   26.6570 C   0  0  0  0  0  0  0  0  0  0  0  0
  -11.1941  -25.5578   26.7708 C   0  0  0  0  0  0  0  0  0  0  0  0
  -10.8343  -25.9208   25.3911 C   0  0  0  0  0  0  0  0  0  0  0  0
  -10.6768  -27.2406   24.4979 N   0  0  0  0  0  0  0  0  0  0  0  0
  -10.4127  -27.4443   22.6364 C   0  0  0  0  0  0  0  0  0  0  0  0
  -10.2273  -26.5900   21.7714 O   0  0  0  0  0  0  0  0  0  0  0  0
  -10.4770  -29.3949   21.7333 C   0  0  0  0  0  0  0  0  0  0  0  0
  -11.5850  -30.3112   20.3270 C   0  0  0  0  0  0  0  0  0  0  0  0
  -11.5001  -31.7906   20.3518 C   0  0  0  0  0  0  0  0  0  0  0  0
  -11.3152  -31.8584   21.7505 O   0  0  0  0  0  0  0  0  0  0  0  0
  -10.2295  -30.9443   21.9505 C   0  0  0  0  0  0  0  0  0  0  0  0
  -12.9305  -23.7776   26.0641 N   0  0  0  0  0  0  0  0  0  0  0  0
  -13.3446  -22.9350   24.9369 C   0  0  0  0  0  0  0  0  0  0  0  0
  -12.6950  -22.2812   24.1706 O   0  0  0  0  0  0  0  0  0  0  0  0
  -14.8487  -23.0919   24.7857 C   0  0  0  0  0  0  0  0  0  0  0  0
  -15.7078  -22.0692   24.1238 C   0  0  0  0  0  0  0  0  0  0  0  0
  -15.3102  -20.7681   23.8081 C   0  0  0  0  0  0  0  0  0  0  0  0
  -16.1706  -19.7978   23.4286 N   0  0  0  0  0  0  0  0  0  0  0  0
  -17.4548  -20.1906   23.3420 C   0  0  0  0  0  0  0  0  0  0  0  0
  -17.8639  -21.4819   23.6239 C   0  0  0  0  0  0  0  0  0  0  0  0
  -17.0107  -22.4451   24.0229 N   0  0  0  0  0  0  0  0  0  0  0  0
  -11.4951  -22.0325   27.5228 H   0  0  0  0  0  0  0  0  0  0  0  0
  -12.0171  -23.2089   28.6646 H   0  0  0  0  0  0  0  0  0  0  0  0
  -10.3326  -23.2024   28.1734 H   0  0  0  0  0  0  0  0  0  0  0  0
  -10.9637  -23.6053   25.8979 H   0  0  0  0  0  0  0  0  0  0  0  0
  -10.3373  -25.6966   27.4193 H   0  0  0  0  0  0  0  0  0  0  0  0
  -12.0456  -26.2073   27.0091 H   0  0  0  0  0  0  0  0  0  0  0  0
  -10.1198  -25.1313   25.1894 H   0  0  0  0  0  0  0  0  0  0  0  0
  -11.8855  -25.8301   25.1902 H   0  0  0  0  0  0  0  0  0  0  0  0
  -10.7177  -28.1124   24.9485 H   0  0  0  0  0  0  0  0  0  0  0  0
  -10.6623  -28.4746   21.0146 H   0  0  0  0  0  0  0  0  0  0  0  0
  -12.6695  -30.2781   20.6176 H   0  0  0  0  0  0  0  0  0  0  0  0
  -11.6900  -29.7229   19.4140 H   0  0  0  0  0  0  0  0  0  0  0  0
  -12.4293  -32.2963   20.0720 H   0  0  0  0  0  0  0  0  0  0  0  0
  -10.6702  -32.2465   19.8035 H   0  0  0  0  0  0  0  0  0  0  0  0
   -9.5349  -31.2690   21.1591 H   0  0  0  0  0  0  0  0  0  0  0  0
   -9.8615  -31.2537   22.9213 H   0  0  0  0  0  0  0  0  0  0  0  0
  -13.7337  -24.2338   26.4436 H   0  0  0  0  0  0  0  0  0  0  0  0
  -15.0737  -24.1060   24.4644 H   0  0  0  0  0  0  0  0  0  0  0  0
  -15.2587  -23.0655   25.7716 H   0  0  0  0  0  0  0  0  0  0  0  0
  -14.2762  -20.4484   23.8668 H   0  0  0  0  0  0  0  0  0  0  0  0
  -18.1612  -19.4320   23.0263 H   0  0  0  0  0  0  0  0  0  0  0  0
  -18.9042  -21.7721   23.5369 H   0  0  0  0  0  0  0  0  0  0  0  0
  1  2  1  0
  2  3  1  0
  3  4  1  0
  4  5  1  0
  5  6  1  0
  6  7  2  0
  6  8  1  0
  8  9  1  0
  9 10  1  0
 10 11  1  0
 11 12  1  0
  2 13  1  0
 13 14  1  0
 14 15  2  0
 14 16  1  0
 16 17  1  0
 17 18  2  0
 18 19  1  0
 19 20  2  0
 20 21  1  0
 21 22  2  0
 12  8  1  0
 22 17  1  0
  1 23  1  0
  1 24  1  0
  1 25  1  0
  2 26  1  0
  3 27  1  0
  3 28  1  0
  4 29  1  0
  4 30  1  0
  5 31  1  0
  8 32  1  0
  9 33  1  0
  9 34  1  0
 10 35  1  0
 10 36  1  0
 12 37  1  0
 12 38  1  0
 13 39  1  0
 16 40  1  0
 16 41  1  0
 18 42  1  0
 20 43  1  0
 21 44  1  0
M  END
>  <Energy>  (779) 
478.66975086358417

>  <compound_id>  (779) 
92075

>  <target_id>  (779) 
1

>  <reference_id>  (779) 
28

>  <inspiration_ids>  (779) 
[28, 54]

>  <energy_score>  (779) 
410.72661063300245

>  <distance_score>  (779) 
9.255838488857494

>  <path>  (779) 
/opt/xchem-fragalysis-2/maxwin/BulkDock/SCRATCH/511025/C92075-P28/C92075-P28.minimised.mol

>  <scratch_subdir>  (779) 
/opt/xchem-fragalysis-2/maxwin/BulkDock/SCRATCH/511025/C92075-P28

>  <fragmenstein_runtime>  (779) 
41.53895664215088

>  <fragmenstein_outcome>  (779) 
too moved

>  <fragmenstein_mode>  (779) 
expansion

>  <fragmenstein_error>  (779) 


$$$$
C92075-P54
     RDKit          3D

 44 45  0  0  0  0  0  0  0  0999 V2000
  -10.2528  -22.9964   29.9676 C   0  0  0  0  0  0  0  0  0  0  0  0
  -10.3282  -23.5634   28.5539 C   0  0  0  0  0  0  0  0  0  0  0  0
  -11.2866  -22.7157   27.6926 C   0  0  0  0  0  0  0  0  0  0  0  0
  -11.5315  -23.3440   26.3201 C   0  0  0  0  0  0  0  0  0  0  0  0
  -11.9630  -22.4628   25.2644 N   0  0  0  0  0  0  0  0  0  0  0  0
  -13.1856  -22.4059   24.5322 C   0  0  0  0  0  0  0  0  0  0  0  0
  -14.2038  -23.0263   24.6592 O   0  0  0  0  0  0  0  0  0  0  0  0
  -13.0649  -21.4289   23.3300 C   0  0  0  0  0  0  0  0  0  0  0  0
  -12.8898  -19.9661   23.6180 C   0  0  0  0  0  0  0  0  0  0  0  0
  -12.3557  -19.3534   22.3641 C   0  0  0  0  0  0  0  0  0  0  0  0
  -11.6314  -20.3945   21.7425 O   0  0  0  0  0  0  0  0  0  0  0  0
  -11.8871  -21.6470   22.3891 C   0  0  0  0  0  0  0  0  0  0  0  0
  -10.7583  -24.9443   28.6218 N   0  0  0  0  0  0  0  0  0  0  0  0
  -10.6195  -26.0303   27.6731 C   0  0  0  0  0  0  0  0  0  0  0  0
  -10.0425  -26.0833   26.6225 O   0  0  0  0  0  0  0  0  0  0  0  0
  -11.4343  -27.2406   28.1392 C   0  0  0  0  0  0  0  0  0  0  0  0
  -12.8716  -26.8448   28.3092 C   0  0  0  0  0  0  0  0  0  0  0  0
  -13.4343  -26.7731   29.5769 C   0  0  0  0  0  0  0  0  0  0  0  0
  -14.6282  -26.1927   29.8079 N   0  0  0  0  0  0  0  0  0  0  0  0
  -15.2674  -25.7157   28.7134 C   0  0  0  0  0  0  0  0  0  0  0  0
  -14.7300  -25.8103   27.4444 C   0  0  0  0  0  0  0  0  0  0  0  0
  -13.5262  -26.3829   27.2152 N   0  0  0  0  0  0  0  0  0  0  0  0
  -10.0490  -21.9247   29.9529 H   0  0  0  0  0  0  0  0  0  0  0  0
  -11.1961  -23.1432   30.5065 H   0  0  0  0  0  0  0  0  0  0  0  0
   -9.4655  -23.4947   30.5435 H   0  0  0  0  0  0  0  0  0  0  0  0
   -9.3362  -23.5535   28.0934 H   0  0  0  0  0  0  0  0  0  0  0  0
  -12.2469  -22.6073   28.2061 H   0  0  0  0  0  0  0  0  0  0  0  0
  -10.8757  -21.7057   27.5805 H   0  0  0  0  0  0  0  0  0  0  0  0
  -12.2682  -24.1462   26.3967 H   0  0  0  0  0  0  0  0  0  0  0  0
  -10.5943  -23.7597   25.9421 H   0  0  0  0  0  0  0  0  0  0  0  0
  -11.3542  -21.7429   24.9355 H   0  0  0  0  0  0  0  0  0  0  0  0
  -14.0032  -21.5198   22.7820 H   0  0  0  0  0  0  0  0  0  0  0  0
  -13.8212  -19.4834   23.9250 H   0  0  0  0  0  0  0  0  0  0  0  0
  -12.1187  -19.8436   24.3787 H   0  0  0  0  0  0  0  0  0  0  0  0
  -13.1564  -18.9925   21.7133 H   0  0  0  0  0  0  0  0  0  0  0  0
  -11.7014  -18.5007   22.5556 H   0  0  0  0  0  0  0  0  0  0  0  0
  -12.0945  -22.3769   21.6080 H   0  0  0  0  0  0  0  0  0  0  0  0
  -10.9683  -21.9255   22.9069 H   0  0  0  0  0  0  0  0  0  0  0  0
  -11.3851  -25.2299   29.3615 H   0  0  0  0  0  0  0  0  0  0  0  0
  -11.0056  -27.6349   29.0658 H   0  0  0  0  0  0  0  0  0  0  0  0
  -11.3654  -28.0301   27.3845 H   0  0  0  0  0  0  0  0  0  0  0  0
  -12.9202  -27.1444   30.4573 H   0  0  0  0  0  0  0  0  0  0  0  0
  -16.2352  -25.2557   28.8850 H   0  0  0  0  0  0  0  0  0  0  0  0
  -15.2508  -25.4159   26.5783 H   0  0  0  0  0  0  0  0  0  0  0  0
  1  2  1  0
  2  3  1  0
  3  4  1  0
  4  5  1  0
  5  6  1  0
  6  7  2  0
  6  8  1  0
  8  9  1  0
  9 10  1  0
 10 11  1  0
 11 12  1  0
  2 13  1  0
 13 14  1  0
 14 15  2  0
 14 16  1  0
 16 17  1  0
 17 18  2  0
 18 19  1  0
 19 20  2  0
 20 21  1  0
 21 22  2  0
 12  8  1  0
 22 17  1  0
  1 23  1  0
  1 24  1  0
  1 25  1  0
  2 26  1  0
  3 27  1  0
  3 28  1  0
  4 29  1  0
  4 30  1  0
  5 31  1  0
  8 32  1  0
  9 33  1  0
  9 34  1  0
 10 35  1  0
 10 36  1  0
 12 37  1  0
 12 38  1  0
 13 39  1  0
 16 40  1  0
 16 41  1  0
 18 42  1  0
 20 43  1  0
 21 44  1  0
M  END
>  <Energy>  (780) 
54.987125014233158

>  <compound_id>  (780) 
92075

>  <target_id>  (780) 
1

>  <reference_id>  (780) 
54

>  <inspiration_ids>  (780) 
[28, 54]

>  <energy_score>  (780) 
-12.956015216337335

>  <distance_score>  (780) 
8.150985158617855

>  <path>  (780) 
/opt/xchem-fragalysis-2/maxwin/BulkDock/SCRATCH/511025/C92075-P54/C92075-P54.minimised.mol

>  <scratch_subdir>  (780) 
/opt/xchem-fragalysis-2/maxwin/BulkDock/SCRATCH/511025/C92075-P54

>  <fragmenstein_runtime>  (780) 
37.196717739105225

>  <fragmenstein_outcome>  (780) 
too moved

>  <fragmenstein_mode>  (780) 
expansion

>  <fragmenstein_error>  (780) 


$$$$
C43820-P28
     RDKit          3D

 44 45  0  0  0  0  0  0  0  0999 V2000
  -10.8116  -24.8524   15.4430 C   0  0  0  0  0  0  0  0  0  0  0  0
   -9.9719  -23.4413   15.2797 C   0  0  0  0  0  0  0  0  0  0  0  0
   -9.5992  -21.8429   16.1161 C   0  0  0  0  0  0  0  0  0  0  0  0
   -9.0174  -20.8416   17.8240 C   0  0  0  0  0  0  0  0  0  0  0  0
   -9.3811  -21.2261   19.6795 N   0  0  0  0  0  0  0  0  0  0  0  0
  -10.5857  -20.9091   20.5392 C   0  0  0  0  0  0  0  0  0  0  0  0
  -11.5588  -20.2605   20.2821 O   0  0  0  0  0  0  0  0  0  0  0  0
  -10.4172  -21.7395   21.9485 C   0  0  0  0  0  0  0  0  0  0  0  0
   -9.2067  -21.1931   22.2684 F   0  0  0  0  0  0  0  0  0  0  0  0
  -11.8970  -21.5405   22.3658 C   0  0  0  0  0  0  0  0  0  0  0  0
  -12.5361  -21.8918   23.6843 C   0  0  0  0  0  0  0  0  0  0  0  0
  -11.4988  -22.7001   24.0310 O   0  0  0  0  0  0  0  0  0  0  0  0
  -10.4490  -21.9925   23.3924 C   0  0  0  0  0  0  0  0  0  0  0  0
  -10.0054  -23.4805   13.8228 N   0  0  0  0  0  0  0  0  0  0  0  0
  -11.1116  -23.5516   12.9082 C   0  0  0  0  0  0  0  0  0  0  0  0
  -12.2930  -23.5116   13.1032 O   0  0  0  0  0  0  0  0  0  0  0  0
  -10.6106  -23.8206   11.5177 C   0  0  0  0  0  0  0  0  0  0  0  0
  -11.2640  -25.0747   10.9818 C   0  0  0  0  0  0  0  0  0  0  0  0
  -10.9555  -26.3296   11.4865 C   0  0  0  0  0  0  0  0  0  0  0  0
  -11.5283  -27.4759   11.0715 N   0  0  0  0  0  0  0  0  0  0  0  0
  -12.4537  -27.3406   10.1118 C   0  0  0  0  0  0  0  0  0  0  0  0
  -12.8468  -26.1863    9.5525 N   0  0  0  0  0  0  0  0  0  0  0  0
  -12.2424  -25.0710   10.0100 C   0  0  0  0  0  0  0  0  0  0  0  0
  -11.6215  -24.9859   14.7205 H   0  0  0  0  0  0  0  0  0  0  0  0
  -11.2963  -25.1416   16.3757 H   0  0  0  0  0  0  0  0  0  0  0  0
  -10.1192  -25.6772   15.2042 H   0  0  0  0  0  0  0  0  0  0  0  0
   -9.0049  -23.8804   15.4609 H   0  0  0  0  0  0  0  0  0  0  0  0
   -9.9655  -21.0851   15.4169 H   0  0  0  0  0  0  0  0  0  0  0  0
   -8.6440  -22.1608   15.6619 H   0  0  0  0  0  0  0  0  0  0  0  0
   -9.4090  -21.7599   17.9619 H   0  0  0  0  0  0  0  0  0  0  0  0
   -7.9397  -20.7621   17.8027 H   0  0  0  0  0  0  0  0  0  0  0  0
   -8.8138  -21.8362   20.1536 H   0  0  0  0  0  0  0  0  0  0  0  0
  -12.3239  -22.2735   21.6776 H   0  0  0  0  0  0  0  0  0  0  0  0
  -12.0788  -20.4946   22.3404 H   0  0  0  0  0  0  0  0  0  0  0  0
  -13.4832  -22.4308   23.6471 H   0  0  0  0  0  0  0  0  0  0  0  0
  -12.6205  -21.0485   24.3737 H   0  0  0  0  0  0  0  0  0  0  0  0
   -9.5312  -22.5401   23.6082 H   0  0  0  0  0  0  0  0  0  0  0  0
  -10.4970  -20.9748   23.8227 H   0  0  0  0  0  0  0  0  0  0  0  0
   -9.1486  -23.6295   13.3146 H   0  0  0  0  0  0  0  0  0  0  0  0
  -10.7433  -22.9405   10.9083 H   0  0  0  0  0  0  0  0  0  0  0  0
   -9.5453  -24.0482   11.5287 H   0  0  0  0  0  0  0  0  0  0  0  0
  -10.2151  -26.4585   12.2722 H   0  0  0  0  0  0  0  0  0  0  0  0
  -12.9291  -28.2468    9.7538 H   0  0  0  0  0  0  0  0  0  0  0  0
  -12.5861  -24.1514    9.5463 H   0  0  0  0  0  0  0  0  0  0  0  0
  1  2  1  0
  2  3  1  0
  3  4  1  0
  4  5  1  0
  5  6  1  0
  6  7  2  0
  6  8  1  0
  8  9  1  0
  8 10  1  0
 10 11  1  0
 11 12  1  0
 12 13  1  0
  2 14  1  0
 14 15  1  0
 15 16  2  0
 15 17  1  0
 17 18  1  0
 18 19  2  0
 19 20  1  0
 20 21  2  0
 21 22  1  0
 22 23  2  0
 13  8  1  0
 23 18  1  0
  1 24  1  0
  1 25  1  0
  1 26  1  0
  2 27  1  0
  3 28  1  0
  3 29  1  0
  4 30  1  0
  4 31  1  0
  5 32  1  0
 10 33  1  0
 10 34  1  0
 11 35  1  0
 11 36  1  0
 13 37  1  0
 13 38  1  0
 14 39  1  0
 17 40  1  0
 17 41  1  0
 19 42  1  0
 21 43  1  0
 23 44  1  0
M  END
>  <Energy>  (781) 
505.67935103312641

>  <compound_id>  (781) 
43820

>  <target_id>  (781) 
1

>  <reference_id>  (781) 
28

>  <inspiration_ids>  (781) 
[28, 54]

>  <energy_score>  (781) 
464.68537078316

>  <distance_score>  (781) 
6.396656853132078

>  <path>  (781) 
/opt/xchem-fragalysis-2/maxwin/BulkDock/SCRATCH/511025/C43820-P28/C43820-P28.minimised.mol

>  <scratch_subdir>  (781) 
/opt/xchem-fragalysis-2/maxwin/BulkDock/SCRATCH/511025/C43820-P28

>  <fragmenstein_runtime>  (781) 
37.88946843147278

>  <fragmenstein_outcome>  (781) 
too moved

>  <fragmenstein_mode>  (781) 
expansion

>  <fragmenstein_error>  (781) 


$$$$
C43820-P54
     RDKit          3D

 44 45  0  0  0  0  0  0  0  0999 V2000
  -10.1172  -23.2469   14.0509 C   0  0  0  0  0  0  0  0  0  0  0  0
  -11.3139  -22.8940   13.1304 C   0  0  0  0  0  0  0  0  0  0  0  0
  -12.3496  -21.3530   13.4697 C   0  0  0  0  0  0  0  0  0  0  0  0
  -14.1062  -20.9478   14.4925 C   0  0  0  0  0  0  0  0  0  0  0  0
  -14.2057  -21.8202   15.6135 N   0  0  0  0  0  0  0  0  0  0  0  0
  -13.8114  -21.5441   17.3125 C   0  0  0  0  0  0  0  0  0  0  0  0
  -13.4626  -20.4875   17.8605 O   0  0  0  0  0  0  0  0  0  0  0  0
  -13.7330  -22.8057   18.4096 C   0  0  0  0  0  0  0  0  0  0  0  0
  -14.6360  -22.0614   18.9891 F   0  0  0  0  0  0  0  0  0  0  0  0
  -12.7272  -22.9671   19.7407 C   0  0  0  0  0  0  0  0  0  0  0  0
  -12.8918  -24.4950   20.1220 C   0  0  0  0  0  0  0  0  0  0  0  0
  -13.5260  -25.1852   19.0388 O   0  0  0  0  0  0  0  0  0  0  0  0
  -14.1913  -24.2546   18.1563 C   0  0  0  0  0  0  0  0  0  0  0  0
  -11.9283  -24.2309   12.9700 N   0  0  0  0  0  0  0  0  0  0  0  0
  -11.4661  -25.4063   12.2715 C   0  0  0  0  0  0  0  0  0  0  0  0
  -10.5070  -25.5752   11.5783 O   0  0  0  0  0  0  0  0  0  0  0  0
  -12.4279  -26.5592   12.5802 C   0  0  0  0  0  0  0  0  0  0  0  0
  -12.2391  -27.7631   11.7135 C   0  0  0  0  0  0  0  0  0  0  0  0
  -11.7450  -28.9581   12.1948 C   0  0  0  0  0  0  0  0  0  0  0  0
  -11.5984  -30.0636   11.4410 N   0  0  0  0  0  0  0  0  0  0  0  0
  -11.9404  -29.9361   10.1498 C   0  0  0  0  0  0  0  0  0  0  0  0
  -12.4199  -28.8291    9.5641 N   0  0  0  0  0  0  0  0  0  0  0  0
  -12.5484  -27.7577   10.3670 C   0  0  0  0  0  0  0  0  0  0  0  0
   -9.1927  -23.2892   13.4696 H   0  0  0  0  0  0  0  0  0  0  0  0
  -10.1932  -24.2443   14.5044 H   0  0  0  0  0  0  0  0  0  0  0  0
  -10.0122  -22.5617   14.8721 H   0  0  0  0  0  0  0  0  0  0  0  0
  -10.7811  -22.6618   12.2032 H   0  0  0  0  0  0  0  0  0  0  0  0
  -11.9838  -20.3644   13.0916 H   0  0  0  0  0  0  0  0  0  0  0  0
  -11.4418  -21.1182   14.0251 H   0  0  0  0  0  0  0  0  0  0  0  0
  -13.9982  -19.9667   15.0769 H   0  0  0  0  0  0  0  0  0  0  0  0
  -14.9227  -20.3054   14.2247 H   0  0  0  0  0  0  0  0  0  0  0  0
  -14.3746  -22.8150   15.4539 H   0  0  0  0  0  0  0  0  0  0  0  0
  -12.8574  -22.6004   20.7753 H   0  0  0  0  0  0  0  0  0  0  0  0
  -11.8784  -22.2947   19.8314 H   0  0  0  0  0  0  0  0  0  0  0  0
  -13.4704  -24.7611   21.0080 H   0  0  0  0  0  0  0  0  0  0  0  0
  -11.9241  -24.8144   20.4131 H   0  0  0  0  0  0  0  0  0  0  0  0
  -14.0250  -24.6293   17.1466 H   0  0  0  0  0  0  0  0  0  0  0  0
  -15.2684  -24.3678   18.2895 H   0  0  0  0  0  0  0  0  0  0  0  0
  -12.8224  -24.4297   13.3935 H   0  0  0  0  0  0  0  0  0  0  0  0
  -12.2922  -26.8273   13.6356 H   0  0  0  0  0  0  0  0  0  0  0  0
  -13.4643  -26.2183   12.4654 H   0  0  0  0  0  0  0  0  0  0  0  0
  -11.4454  -29.0751   13.2326 H   0  0  0  0  0  0  0  0  0  0  0  0
  -11.8184  -30.8111    9.5210 H   0  0  0  0  0  0  0  0  0  0  0  0
  -12.9209  -26.8646    9.8733 H   0  0  0  0  0  0  0  0  0  0  0  0
  1  2  1  0
  2  3  1  0
  3  4  1  0
  4  5  1  0
  5  6  1  0
  6  7  2  0
  6  8  1  0
  8  9  1  0
  8 10  1  0
 10 11  1  0
 11 12  1  0
 12 13  1  0
  2 14  1  0
 14 15  1  0
 15 16  2  0
 15 17  1  0
 17 18  1  0
 18 19  2  0
 19 20  1  0
 20 21  2  0
 21 22  1  0
 22 23  2  0
 13  8  1  0
 23 18  1  0
  1 24  1  0
  1 25  1  0
  1 26  1  0
  2 27  1  0
  3 28  1  0
  3 29  1  0
  4 30  1  0
  4 31  1  0
  5 32  1  0
 10 33  1  0
 10 34  1  0
 11 35  1  0
 11 36  1  0
 13 37  1  0
 13 38  1  0
 14 39  1  0
 17 40  1  0
 17 41  1  0
 19 42  1  0
 21 43  1  0
 23 44  1  0
M  END
>  <Energy>  (782) 
370.18961254242953

>  <compound_id>  (782) 
43820

>  <target_id>  (782) 
1

>  <reference_id>  (782) 
54

>  <inspiration_ids>  (782) 
[28, 54]

>  <energy_score>  (782) 
329.1956322924611

>  <distance_score>  (782) 
8.68297030445281

>  <path>  (782) 
/opt/xchem-fragalysis-2/maxwin/BulkDock/SCRATCH/511025/C43820-P54/C43820-P54.minimised.mol

>  <scratch_subdir>  (782) 
/opt/xchem-fragalysis-2/maxwin/BulkDock/SCRATCH/511025/C43820-P54

>  <fragmenstein_runtime>  (782) 
35.93409729003906

>  <fragmenstein_outcome>  (782) 
too moved

>  <fragmenstein_mode>  (782) 
expansion

>  <fragmenstein_error>  (782) 


$$$$
C92077-P28
     RDKit          3D

 43 44  0  0  0  0  0  0  0  0999 V2000
   -9.7699  -23.4122   15.6546 C   0  0  0  0  0  0  0  0  0  0  0  0
   -9.5700  -21.8361   16.0683 C   0  0  0  0  0  0  0  0  0  0  0  0
   -9.0473  -20.8649   17.7877 C   0  0  0  0  0  0  0  0  0  0  0  0
   -9.3986  -20.8286   19.7967 C   0  0  0  0  0  0  0  0  0  0  0  0
  -10.8110  -21.1824   21.0673 N   0  0  0  0  0  0  0  0  0  0  0  0
  -10.9990  -21.5072   22.0898 C   0  0  0  0  0  0  0  0  0  0  0  0
   -9.5065  -21.6065   22.6864 O   0  0  0  0  0  0  0  0  0  0  0  0
  -12.0724  -21.8694   23.2531 C   0  0  0  0  0  0  0  0  0  0  0  0
  -11.0968  -22.8319   23.7207 O   0  0  0  0  0  0  0  0  0  0  0  0
  -12.1476  -21.1522   24.5475 C   0  0  0  0  0  0  0  0  0  0  0  0
  -12.4562  -22.2831   25.6066 C   0  0  0  0  0  0  0  0  0  0  0  0
  -13.4642  -23.0450   24.9362 O   0  0  0  0  0  0  0  0  0  0  0  0
  -13.4220  -22.5168   23.5777 C   0  0  0  0  0  0  0  0  0  0  0  0
   -9.2156  -21.9368   14.6207 N   0  0  0  0  0  0  0  0  0  0  0  0
  -10.0637  -22.0428   13.4395 C   0  0  0  0  0  0  0  0  0  0  0  0
  -11.2508  -21.9897   13.3256 O   0  0  0  0  0  0  0  0  0  0  0  0
   -9.3193  -22.3673   12.2315 C   0  0  0  0  0  0  0  0  0  0  0  0
   -9.6802  -23.7670   11.9207 N   0  0  0  0  0  0  0  0  0  0  0  0
   -8.7093  -24.7167   11.9296 N   0  0  0  0  0  0  0  0  0  0  0  0
   -9.3709  -25.7972   11.5025 C   0  0  0  0  0  0  0  0  0  0  0  0
  -10.6710  -25.4428   11.1382 C   0  0  0  0  0  0  0  0  0  0  0  0
  -10.8399  -24.1292   11.3113 N   0  0  0  0  0  0  0  0  0  0  0  0
  -10.6708  -23.9653   15.8621 H   0  0  0  0  0  0  0  0  0  0  0  0
   -9.8030  -23.8011   14.6146 H   0  0  0  0  0  0  0  0  0  0  0  0
   -8.8512  -23.9190   15.8652 H   0  0  0  0  0  0  0  0  0  0  0  0
  -10.2170  -21.0824   15.7221 H   0  0  0  0  0  0  0  0  0  0  0  0
   -9.3932  -21.7534   18.1084 H   0  0  0  0  0  0  0  0  0  0  0  0
   -7.9707  -20.7416   17.7613 H   0  0  0  0  0  0  0  0  0  0  0  0
   -8.6228  -20.1195   20.0882 H   0  0  0  0  0  0  0  0  0  0  0  0
   -9.0314  -21.6048   20.3795 H   0  0  0  0  0  0  0  0  0  0  0  0
  -11.0539  -20.9828   20.1872 H   0  0  0  0  0  0  0  0  0  0  0  0
  -10.1714  -22.5531   23.4959 H   0  0  0  0  0  0  0  0  0  0  0  0
  -11.2643  -20.5815   24.6311 H   0  0  0  0  0  0  0  0  0  0  0  0
  -12.9676  -20.4638   24.4979 H   0  0  0  0  0  0  0  0  0  0  0  0
  -11.6896  -23.0316   25.8315 H   0  0  0  0  0  0  0  0  0  0  0  0
  -12.7050  -21.9576   26.6144 H   0  0  0  0  0  0  0  0  0  0  0  0
  -13.6780  -23.3314   22.9798 H   0  0  0  0  0  0  0  0  0  0  0  0
  -14.2567  -21.8168   23.5944 H   0  0  0  0  0  0  0  0  0  0  0  0
   -8.2483  -22.1133   14.3545 H   0  0  0  0  0  0  0  0  0  0  0  0
   -9.6087  -21.7467   11.3988 H   0  0  0  0  0  0  0  0  0  0  0  0
   -8.2417  -22.3064   12.4075 H   0  0  0  0  0  0  0  0  0  0  0  0
   -8.8742  -26.7561   11.4594 H   0  0  0  0  0  0  0  0  0  0  0  0
  -11.4702  -26.0455   10.7312 H   0  0  0  0  0  0  0  0  0  0  0  0
  1  2  1  0
  2  3  1  0
  3  4  1  0
  4  5  1  0
  5  6  1  0
  6  7  2  0
  6  8  1  0
  8  9  1  0
  8 10  1  0
 10 11  1  0
 11 12  1  0
 12 13  1  0
  2 14  1  0
 14 15  1  0
 15 16  2  0
 15 17  1  0
 17 18  1  0
 18 19  1  0
 19 20  2  0
 20 21  1  0
 21 22  2  0
 13  8  1  0
 22 18  1  0
  1 23  1  0
  1 24  1  0
  1 25  1  0
  2 26  1  0
  3 27  1  0
  3 28  1  0
  4 29  1  0
  4 30  1  0
  5 31  1  0
  9 32  1  0
 10 33  1  0
 10 34  1  0
 11 35  1  0
 11 36  1  0
 13 37  1  0
 13 38  1  0
 14 39  1  0
 17 40  1  0
 17 41  1  0
 20 42  1  0
 21 43  1  0
M  END
>  <Energy>  (783) 
732.61392651015558

>  <compound_id>  (783) 
92077

>  <target_id>  (783) 
1

>  <reference_id>  (783) 
28

>  <inspiration_ids>  (783) 
[28, 54]

>  <energy_score>  (783) 
650.0690954164413

>  <distance_score>  (783) 
3.7577422706536985

>  <path>  (783) 
/opt/xchem-fragalysis-2/maxwin/BulkDock/SCRATCH/511025/C92077-P28/C92077-P28.minimised.mol

>  <scratch_subdir>  (783) 
/opt/xchem-fragalysis-2/maxwin/BulkDock/SCRATCH/511025/C92077-P28

>  <fragmenstein_runtime>  (783) 
19.602771520614624

>  <fragmenstein_outcome>  (783) 
too moved

>  <fragmenstein_mode>  (783) 
expansion

>  <fragmenstein_error>  (783) 


$$$$
C92077-P54
     RDKit          3D

 43 44  0  0  0  0  0  0  0  0999 V2000
   -8.4158  -20.7869   17.6898 C   0  0  0  0  0  0  0  0  0  0  0  0
   -9.4568  -21.8332   17.6012 C   0  0  0  0  0  0  0  0  0  0  0  0
   -9.9451  -22.4198   19.6016 C   0  0  0  0  0  0  0  0  0  0  0  0
   -9.9442  -24.4301   20.2943 C   0  0  0  0  0  0  0  0  0  0  0  0
  -10.8144  -25.3114   21.3620 N   0  0  0  0  0  0  0  0  0  0  0  0
  -10.2797  -26.7033   22.7272 C   0  0  0  0  0  0  0  0  0  0  0  0
   -9.1836  -27.1652   22.8243 O   0  0  0  0  0  0  0  0  0  0  0  0
  -11.3437  -27.3150   24.3485 C   0  0  0  0  0  0  0  0  0  0  0  0
  -12.6367  -27.6167   24.8303 O   0  0  0  0  0  0  0  0  0  0  0  0
  -11.4790  -25.8986   25.4931 C   0  0  0  0  0  0  0  0  0  0  0  0
  -10.9608  -26.1918   26.8646 C   0  0  0  0  0  0  0  0  0  0  0  0
   -9.7048  -26.6647   26.4567 O   0  0  0  0  0  0  0  0  0  0  0  0
  -10.0342  -27.7089   25.5305 C   0  0  0  0  0  0  0  0  0  0  0  0
   -9.5031  -23.1026   16.1146 N   0  0  0  0  0  0  0  0  0  0  0  0
  -10.0289  -22.9841   14.7392 C   0  0  0  0  0  0  0  0  0  0  0  0
  -10.6346  -22.1028   14.2117 O   0  0  0  0  0  0  0  0  0  0  0  0
   -9.8155  -24.2678   13.9458 C   0  0  0  0  0  0  0  0  0  0  0  0
  -10.9445  -24.8285   13.1910 N   0  0  0  0  0  0  0  0  0  0  0  0
  -10.7666  -25.1056   11.8595 N   0  0  0  0  0  0  0  0  0  0  0  0
  -11.6545  -26.0762   11.6435 C   0  0  0  0  0  0  0  0  0  0  0  0
  -12.3129  -26.3940   12.8309 C   0  0  0  0  0  0  0  0  0  0  0  0
  -11.8391  -25.6493   13.8318 N   0  0  0  0  0  0  0  0  0  0  0  0
   -7.4204  -21.1804   17.5733 H   0  0  0  0  0  0  0  0  0  0  0  0
   -8.6910  -20.3199   18.6335 H   0  0  0  0  0  0  0  0  0  0  0  0
   -8.4565  -19.9259   17.0636 H   0  0  0  0  0  0  0  0  0  0  0  0
   -9.8550  -21.0391   16.9881 H   0  0  0  0  0  0  0  0  0  0  0  0
  -10.9128  -22.0549   20.1086 H   0  0  0  0  0  0  0  0  0  0  0  0
   -9.4226  -21.7254   20.3061 H   0  0  0  0  0  0  0  0  0  0  0  0
  -10.8897  -23.8852   20.8189 H   0  0  0  0  0  0  0  0  0  0  0  0
   -8.9446  -24.7690   20.7574 H   0  0  0  0  0  0  0  0  0  0  0  0
  -11.7998  -25.1415   21.3978 H   0  0  0  0  0  0  0  0  0  0  0  0
  -12.5892  -27.9201   25.7566 H   0  0  0  0  0  0  0  0  0  0  0  0
  -10.7904  -25.0894   25.2378 H   0  0  0  0  0  0  0  0  0  0  0  0
  -12.5169  -25.5436   25.5798 H   0  0  0  0  0  0  0  0  0  0  0  0
  -10.8464  -25.2945   27.4794 H   0  0  0  0  0  0  0  0  0  0  0  0
  -11.5322  -26.9436   27.4186 H   0  0  0  0  0  0  0  0  0  0  0  0
   -9.1397  -28.0413   25.0196 H   0  0  0  0  0  0  0  0  0  0  0  0
  -10.2903  -28.4384   26.2910 H   0  0  0  0  0  0  0  0  0  0  0  0
   -8.9673  -23.9454   16.1907 H   0  0  0  0  0  0  0  0  0  0  0  0
   -9.5322  -25.0893   14.6067 H   0  0  0  0  0  0  0  0  0  0  0  0
   -9.0532  -24.0477   13.1917 H   0  0  0  0  0  0  0  0  0  0  0  0
  -11.7686  -26.4945   10.6541 H   0  0  0  0  0  0  0  0  0  0  0  0
  -13.0825  -27.1282   13.0196 H   0  0  0  0  0  0  0  0  0  0  0  0
  1  2  1  0
  2  3  1  0
  3  4  1  0
  4  5  1  0
  5  6  1  0
  6  7  2  0
  6  8  1  0
  8  9  1  0
  8 10  1  0
 10 11  1  0
 11 12  1  0
 12 13  1  0
  2 14  1  0
 14 15  1  0
 15 16  2  0
 15 17  1  0
 17 18  1  0
 18 19  1  0
 19 20  2  0
 20 21  1  0
 21 22  2  0
 13  8  1  0
 22 18  1  0
  1 23  1  0
  1 24  1  0
  1 25  1  0
  2 26  1  0
  3 27  1  0
  3 28  1  0
  4 29  1  0
  4 30  1  0
  5 31  1  0
  9 32  1  0
 10 33  1  0
 10 34  1  0
 11 35  1  0
 11 36  1  0
 13 37  1  0
 13 38  1  0
 14 39  1  0
 17 40  1  0
 17 41  1  0
 20 42  1  0
 21 43  1  0
M  END
>  <Energy>  (784) 
751.76309114333287

>  <compound_id>  (784) 
92077

>  <target_id>  (784) 
1

>  <reference_id>  (784) 
54

>  <inspiration_ids>  (784) 
[28, 54]

>  <energy_score>  (784) 
669.2182600496161

>  <distance_score>  (784) 
3.784598420468164

>  <path>  (784) 
/opt/xchem-fragalysis-2/maxwin/BulkDock/SCRATCH/511025/C92077-P54/C92077-P54.minimised.mol

>  <scratch_subdir>  (784) 
/opt/xchem-fragalysis-2/maxwin/BulkDock/SCRATCH/511025/C92077-P54

>  <fragmenstein_runtime>  (784) 
15.04767632484436

>  <fragmenstein_outcome>  (784) 
too moved

>  <fragmenstein_mode>  (784) 
expansion

>  <fragmenstein_error>  (784) 


$$$$
C43821-P28
     RDKit          3D

 47 48  0  0  0  0  0  0  0  0999 V2000
  -12.6582  -28.0497   18.2018 C   0  0  0  0  0  0  0  0  0  0  0  0
  -14.1591  -28.3160   18.1351 C   0  0  0  0  0  0  0  0  0  0  0  0
  -14.8702  -27.8300   19.4127 C   0  0  0  0  0  0  0  0  0  0  0  0
  -14.8558  -28.9352   20.4979 C   0  0  0  0  0  0  0  0  0  0  0  0
  -15.2096  -28.5136   21.8466 N   0  0  0  0  0  0  0  0  0  0  0  0
  -14.6722  -28.9058   23.1377 C   0  0  0  0  0  0  0  0  0  0  0  0
  -13.7481  -29.6166   23.4152 O   0  0  0  0  0  0  0  0  0  0  0  0
  -15.4286  -28.2131   24.3186 C   0  0  0  0  0  0  0  0  0  0  0  0
  -16.7885  -28.8878   24.5183 C   0  0  0  0  0  0  0  0  0  0  0  0
  -15.5625  -26.7277   24.0723 C   0  0  0  0  0  0  0  0  0  0  0  0
  -15.4914  -26.0833   25.4216 C   0  0  0  0  0  0  0  0  0  0  0  0
  -14.5774  -26.8666   26.1834 O   0  0  0  0  0  0  0  0  0  0  0  0
  -14.6083  -28.2146   25.6415 C   0  0  0  0  0  0  0  0  0  0  0  0
  -14.6812  -27.7465   16.9086 N   0  0  0  0  0  0  0  0  0  0  0  0
  -14.8475  -26.3766   16.4993 C   0  0  0  0  0  0  0  0  0  0  0  0
  -14.6710  -25.3547   17.0986 O   0  0  0  0  0  0  0  0  0  0  0  0
  -15.3067  -26.3255   15.0339 C   0  0  0  0  0  0  0  0  0  0  0  0
  -14.2504  -26.7506   14.0536 C   0  0  0  0  0  0  0  0  0  0  0  0
  -14.2568  -27.9884   13.4367 C   0  0  0  0  0  0  0  0  0  0  0  0
  -13.3232  -28.4050   12.5608 N   0  0  0  0  0  0  0  0  0  0  0  0
  -12.3511  -27.5230   12.2874 C   0  0  0  0  0  0  0  0  0  0  0  0
  -12.2415  -26.2935   12.8105 N   0  0  0  0  0  0  0  0  0  0  0  0
  -13.1956  -25.9359   13.6938 C   0  0  0  0  0  0  0  0  0  0  0  0
  -12.1515  -28.4718   17.3270 H   0  0  0  0  0  0  0  0  0  0  0  0
  -12.4423  -26.9760   18.2126 H   0  0  0  0  0  0  0  0  0  0  0  0
  -12.2206  -28.4939   19.0981 H   0  0  0  0  0  0  0  0  0  0  0  0
  -14.3143  -29.3965   18.0279 H   0  0  0  0  0  0  0  0  0  0  0  0
  -14.4044  -26.9140   19.7874 H   0  0  0  0  0  0  0  0  0  0  0  0
  -15.9167  -27.5786   19.1991 H   0  0  0  0  0  0  0  0  0  0  0  0
  -13.8682  -29.4033   20.5619 H   0  0  0  0  0  0  0  0  0  0  0  0
  -15.5650  -29.7243   20.2239 H   0  0  0  0  0  0  0  0  0  0  0  0
  -16.0505  -27.9667   21.9903 H   0  0  0  0  0  0  0  0  0  0  0  0
  -16.6638  -29.9578   24.7200 H   0  0  0  0  0  0  0  0  0  0  0  0
  -17.4192  -28.7973   23.6273 H   0  0  0  0  0  0  0  0  0  0  0  0
  -17.3372  -28.4493   25.3589 H   0  0  0  0  0  0  0  0  0  0  0  0
  -14.6921  -26.4126   23.4987 H   0  0  0  0  0  0  0  0  0  0  0  0
  -16.4633  -26.4348   23.5244 H   0  0  0  0  0  0  0  0  0  0  0  0
  -16.4644  -26.0887   25.9234 H   0  0  0  0  0  0  0  0  0  0  0  0
  -15.1262  -25.0580   25.3303 H   0  0  0  0  0  0  0  0  0  0  0  0
  -15.0598  -28.8664   26.3962 H   0  0  0  0  0  0  0  0  0  0  0  0
  -13.5657  -28.5182   25.5122 H   0  0  0  0  0  0  0  0  0  0  0  0
  -15.0033  -28.3552   16.1649 H   0  0  0  0  0  0  0  0  0  0  0  0
  -16.2091  -26.9406   14.9260 H   0  0  0  0  0  0  0  0  0  0  0  0
  -15.6209  -25.2989   14.8058 H   0  0  0  0  0  0  0  0  0  0  0  0
  -15.0444  -28.7135   13.6229 H   0  0  0  0  0  0  0  0  0  0  0  0
  -11.5860  -27.8295   11.5824 H   0  0  0  0  0  0  0  0  0  0  0  0
  -13.0806  -24.9356   14.1032 H   0  0  0  0  0  0  0  0  0  0  0  0
  1  2  1  0
  2  3  1  0
  3  4  1  0
  4  5  1  0
  5  6  1  0
  6  7  2  0
  6  8  1  0
  8  9  1  0
  8 10  1  0
 10 11  1  0
 11 12  1  0
 12 13  1  0
  2 14  1  0
 14 15  1  0
 15 16  2  0
 15 17  1  0
 17 18  1  0
 18 19  2  0
 19 20  1  0
 20 21  2  0
 21 22  1  0
 22 23  2  0
 13  8  1  0
 23 18  1  0
  1 24  1  0
  1 25  1  0
  1 26  1  0
  2 27  1  0
  3 28  1  0
  3 29  1  0
  4 30  1  0
  4 31  1  0
  5 32  1  0
  9 33  1  0
  9 34  1  0
  9 35  1  0
 10 36  1  0
 10 37  1  0
 11 38  1  0
 11 39  1  0
 13 40  1  0
 13 41  1  0
 14 42  1  0
 17 43  1  0
 17 44  1  0
 19 45  1  0
 21 46  1  0
 23 47  1  0
M  END
>  <Energy>  (785) 
-1.0339187695404508

>  <compound_id>  (785) 
43821

>  <target_id>  (785) 
1

>  <reference_id>  (785) 
28

>  <inspiration_ids>  (785) 
[28, 54]

>  <energy_score>  (785) 
-23.54945823656385

>  <distance_score>  (785) 
8.185718100127016

>  <path>  (785) 
/opt/xchem-fragalysis-2/maxwin/BulkDock/SCRATCH/511025/C43821-P28/C43821-P28.minimised.mol

>  <scratch_subdir>  (785) 
/opt/xchem-fragalysis-2/maxwin/BulkDock/SCRATCH/511025/C43821-P28

>  <fragmenstein_runtime>  (785) 
54.10064458847046

>  <fragmenstein_outcome>  (785) 
too moved

>  <fragmenstein_mode>  (785) 
expansion

>  <fragmenstein_error>  (785) 


$$$$
C43821-P54
     RDKit          3D

 47 48  0  0  0  0  0  0  0  0999 V2000
   -7.5069  -31.3028   18.3933 C   0  0  0  0  0  0  0  0  0  0  0  0
   -7.6991  -29.8461   18.8084 C   0  0  0  0  0  0  0  0  0  0  0  0
   -8.4876  -29.7322   20.1421 C   0  0  0  0  0  0  0  0  0  0  0  0
   -7.5026  -29.9667   21.5004 C   0  0  0  0  0  0  0  0  0  0  0  0
   -8.0283  -29.8274   22.9332 N   0  0  0  0  0  0  0  0  0  0  0  0
   -7.2993  -29.3222   24.2564 C   0  0  0  0  0  0  0  0  0  0  0  0
   -6.1734  -29.0186   24.4384 O   0  0  0  0  0  0  0  0  0  0  0  0
   -8.2903  -29.2374   25.6867 C   0  0  0  0  0  0  0  0  0  0  0  0
   -8.5124  -30.7081   26.0699 C   0  0  0  0  0  0  0  0  0  0  0  0
   -9.6374  -28.4488   25.8726 C   0  0  0  0  0  0  0  0  0  0  0  0
   -9.6437  -27.7532   27.2204 C   0  0  0  0  0  0  0  0  0  0  0  0
   -8.2997  -27.3425   27.3101 O   0  0  0  0  0  0  0  0  0  0  0  0
   -7.5062  -28.4807   26.8596 C   0  0  0  0  0  0  0  0  0  0  0  0
   -8.2298  -29.0629   17.6797 N   0  0  0  0  0  0  0  0  0  0  0  0
   -9.5320  -29.2636   16.8220 C   0  0  0  0  0  0  0  0  0  0  0  0
  -10.4068  -30.0340   16.9406 O   0  0  0  0  0  0  0  0  0  0  0  0
   -9.4759  -28.1786   15.7048 C   0  0  0  0  0  0  0  0  0  0  0  0
  -10.3655  -28.2882   14.4755 C   0  0  0  0  0  0  0  0  0  0  0  0
  -10.8995  -29.4565   13.9686 C   0  0  0  0  0  0  0  0  0  0  0  0
  -11.6093  -29.5432   12.8152 N   0  0  0  0  0  0  0  0  0  0  0  0
  -11.7718  -28.4009   12.1347 C   0  0  0  0  0  0  0  0  0  0  0  0
  -11.2907  -27.2062   12.4987 N   0  0  0  0  0  0  0  0  0  0  0  0
  -10.5972  -27.1836   13.6658 C   0  0  0  0  0  0  0  0  0  0  0  0
   -8.4667  -31.7872   18.1837 H   0  0  0  0  0  0  0  0  0  0  0  0
   -7.0011  -31.8748   19.1773 H   0  0  0  0  0  0  0  0  0  0  0  0
   -6.8995  -31.3699   17.4839 H   0  0  0  0  0  0  0  0  0  0  0  0
   -6.7053  -29.4138   18.9776 H   0  0  0  0  0  0  0  0  0  0  0  0
   -9.2141  -30.5565   20.1894 H   0  0  0  0  0  0  0  0  0  0  0  0
   -9.1278  -28.8576   20.2119 H   0  0  0  0  0  0  0  0  0  0  0  0
   -6.6365  -29.3010   21.4254 H   0  0  0  0  0  0  0  0  0  0  0  0
   -7.1265  -30.9940   21.4440 H   0  0  0  0  0  0  0  0  0  0  0  0
   -8.9866  -30.0795   23.1479 H   0  0  0  0  0  0  0  0  0  0  0  0
   -7.5580  -31.2382   26.1607 H   0  0  0  0  0  0  0  0  0  0  0  0
   -9.1045  -31.2215   25.3049 H   0  0  0  0  0  0  0  0  0  0  0  0
   -9.0450  -30.8058   27.0214 H   0  0  0  0  0  0  0  0  0  0  0  0
   -9.6968  -27.6551   25.1415 H   0  0  0  0  0  0  0  0  0  0  0  0
  -10.5230  -29.0849   25.7682 H   0  0  0  0  0  0  0  0  0  0  0  0
  -10.3161  -26.8921   27.2526 H   0  0  0  0  0  0  0  0  0  0  0  0
   -9.8885  -28.4464   28.0321 H   0  0  0  0  0  0  0  0  0  0  0  0
   -7.3476  -29.1433   27.7136 H   0  0  0  0  0  0  0  0  0  0  0  0
   -6.5292  -28.0998   26.5574 H   0  0  0  0  0  0  0  0  0  0  0  0
   -7.7220  -28.2413   17.3444 H   0  0  0  0  0  0  0  0  0  0  0  0
   -9.6977  -27.2270   16.2030 H   0  0  0  0  0  0  0  0  0  0  0  0
   -8.4445  -28.1401   15.3326 H   0  0  0  0  0  0  0  0  0  0  0  0
  -10.7700  -30.4092   14.4771 H   0  0  0  0  0  0  0  0  0  0  0  0
  -12.3355  -28.4500   11.2107 H   0  0  0  0  0  0  0  0  0  0  0  0
  -10.2029  -26.2029   13.9280 H   0  0  0  0  0  0  0  0  0  0  0  0
  1  2  1  0
  2  3  1  0
  3  4  1  0
  4  5  1  0
  5  6  1  0
  6  7  2  0
  6  8  1  0
  8  9  1  0
  8 10  1  0
 10 11  1  0
 11 12  1  0
 12 13  1  0
  2 14  1  0
 14 15  1  0
 15 16  2  0
 15 17  1  0
 17 18  1  0
 18 19  2  0
 19 20  1  0
 20 21  2  0
 21 22  1  0
 22 23  2  0
 13  8  1  0
 23 18  1  0
  1 24  1  0
  1 25  1  0
  1 26  1  0
  2 27  1  0
  3 28  1  0
  3 29  1  0
  4 30  1  0
  4 31  1  0
  5 32  1  0
  9 33  1  0
  9 34  1  0
  9 35  1  0
 10 36  1  0
 10 37  1  0
 11 38  1  0
 11 39  1  0
 13 40  1  0
 13 41  1  0
 14 42  1  0
 17 43  1  0
 17 44  1  0
 19 45  1  0
 21 46  1  0
 23 47  1  0
M  END
>  <Energy>  (786) 
62.675102105433687

>  <compound_id>  (786) 
43821

>  <target_id>  (786) 
1

>  <reference_id>  (786) 
54

>  <inspiration_ids>  (786) 
[28, 54]

>  <energy_score>  (786) 
28.361197627250547

>  <distance_score>  (786) 
7.46971818361387

>  <path>  (786) 
/opt/xchem-fragalysis-2/maxwin/BulkDock/SCRATCH/511025/C43821-P54/C43821-P54.minimised.mol

>  <scratch_subdir>  (786) 
/opt/xchem-fragalysis-2/maxwin/BulkDock/SCRATCH/511025/C43821-P54

>  <fragmenstein_runtime>  (786) 
36.073071002960205

>  <fragmenstein_outcome>  (786) 
too moved

>  <fragmenstein_mode>  (786) 
expansion

>  <fragmenstein_error>  (786) 


$$$$
C92079-P28
     RDKit          3D

 45 46  0  0  0  0  0  0  0  0999 V2000
  -17.4086  -33.9460   16.1258 C   0  0  0  0  0  0  0  0  0  0  0  0
  -15.7345  -34.0587   16.8066 S   0  0  0  0  0  0  0  0  0  0  0  0
  -15.8276  -32.7345   18.0591 C   0  0  0  0  0  0  0  0  0  0  0  0
  -15.7007  -31.3543   17.4253 C   0  0  0  0  0  0  0  0  0  0  0  0
  -15.6998  -30.2537   18.4860 C   0  0  0  0  0  0  0  0  0  0  0  0
  -15.8576  -30.5177   19.6407 O   0  0  0  0  0  0  0  0  0  0  0  0
  -15.4749  -28.9932   17.8346 N   0  0  0  0  0  0  0  0  0  0  0  0
  -15.4638  -27.6343   18.3611 C   0  0  0  0  0  0  0  0  0  0  0  0
  -16.8949  -27.2247   18.8322 C   0  0  0  0  0  0  0  0  0  0  0  0
  -17.0607  -27.0369   20.2741 N   0  0  0  0  0  0  0  0  0  0  0  0
  -18.2047  -26.6415   21.0461 C   0  0  0  0  0  0  0  0  0  0  0  0
  -19.3379  -26.4409   20.7168 O   0  0  0  0  0  0  0  0  0  0  0  0
  -17.8804  -26.3350   22.5028 C   0  0  0  0  0  0  0  0  0  0  0  0
  -18.7465  -25.5182   23.2233 C   0  0  0  0  0  0  0  0  0  0  0  0
  -18.4630  -25.0401   24.4679 N   0  0  0  0  0  0  0  0  0  0  0  0
  -17.2828  -25.4216   24.9862 C   0  0  0  0  0  0  0  0  0  0  0  0
  -16.4137  -26.2366   24.2865 C   0  0  0  0  0  0  0  0  0  0  0  0
  -16.6727  -26.7062   23.0295 N   0  0  0  0  0  0  0  0  0  0  0  0
  -14.8010  -26.6264   17.3863 C   0  0  0  0  0  0  0  0  0  0  0  0
  -15.3801  -26.4819   15.9900 C   0  0  0  0  0  0  0  0  0  0  0  0
  -14.2608  -25.7746   15.2439 C   0  0  0  0  0  0  0  0  0  0  0  0
  -13.0338  -26.1224   15.9024 O   0  0  0  0  0  0  0  0  0  0  0  0
  -13.3443  -26.9219   17.0533 C   0  0  0  0  0  0  0  0  0  0  0  0
  -18.1523  -34.0734   16.9165 H   0  0  0  0  0  0  0  0  0  0  0  0
  -17.5478  -34.7418   15.3891 H   0  0  0  0  0  0  0  0  0  0  0  0
  -17.5598  -32.9863   15.6261 H   0  0  0  0  0  0  0  0  0  0  0  0
  -16.7586  -32.8334   18.6277 H   0  0  0  0  0  0  0  0  0  0  0  0
  -15.0044  -32.8977   18.7637 H   0  0  0  0  0  0  0  0  0  0  0  0
  -14.7631  -31.2844   16.8598 H   0  0  0  0  0  0  0  0  0  0  0  0
  -16.5388  -31.1619   16.7460 H   0  0  0  0  0  0  0  0  0  0  0  0
  -15.4690  -29.1366   16.8301 H   0  0  0  0  0  0  0  0  0  0  0  0
  -14.8237  -27.6844   19.2483 H   0  0  0  0  0  0  0  0  0  0  0  0
  -17.6505  -27.9560   18.5231 H   0  0  0  0  0  0  0  0  0  0  0  0
  -17.1876  -26.2710   18.3788 H   0  0  0  0  0  0  0  0  0  0  0  0
  -16.2441  -27.0320   20.8704 H   0  0  0  0  0  0  0  0  0  0  0  0
  -19.6908  -25.1829   22.8021 H   0  0  0  0  0  0  0  0  0  0  0  0
  -17.0687  -25.0547   25.9799 H   0  0  0  0  0  0  0  0  0  0  0  0
  -15.4632  -26.5222   24.7195 H   0  0  0  0  0  0  0  0  0  0  0  0
  -14.8287  -25.6331   17.8515 H   0  0  0  0  0  0  0  0  0  0  0  0
  -16.3170  -25.9183   15.9626 H   0  0  0  0  0  0  0  0  0  0  0  0
  -15.5631  -27.4576   15.5278 H   0  0  0  0  0  0  0  0  0  0  0  0
  -14.2102  -26.0691   14.1918 H   0  0  0  0  0  0  0  0  0  0  0  0
  -14.3825  -24.6884   15.2960 H   0  0  0  0  0  0  0  0  0  0  0  0
  -12.6656  -26.6661   17.8715 H   0  0  0  0  0  0  0  0  0  0  0  0
  -13.1797  -27.9705   16.7832 H   0  0  0  0  0  0  0  0  0  0  0  0
  1  2  1  0
  2  3  1  0
  3  4  1  0
  4  5  1  0
  5  6  2  0
  5  7  1  0
  7  8  1  0
  8  9  1  0
  9 10  1  0
 10 11  1  0
 11 12  2  0
 11 13  1  0
 13 14  2  0
 14 15  1  0
 15 16  2  0
 16 17  1  0
 17 18  2  0
  8 19  1  0
 19 20  1  0
 20 21  1  0
 21 22  1  0
 22 23  1  0
 18 13  1  0
 23 19  1  0
  1 24  1  0
  1 25  1  0
  1 26  1  0
  3 27  1  0
  3 28  1  0
  4 29  1  0
  4 30  1  0
  7 31  1  0
  8 32  1  0
  9 33  1  0
  9 34  1  0
 10 35  1  0
 14 36  1  0
 16 37  1  0
 17 38  1  0
 19 39  1  0
 20 40  1  0
 20 41  1  0
 21 42  1  0
 21 43  1  0
 23 44  1  0
 23 45  1  0
M  END
>  <Energy>  (787) 
99.070672713283159

>  <compound_id>  (787) 
92079

>  <target_id>  (787) 
1

>  <reference_id>  (787) 
28

>  <inspiration_ids>  (787) 
[28, 54]

>  <energy_score>  (787) 
-30.008984040047608

>  <distance_score>  (787) 
8.124838468159968

>  <path>  (787) 
/opt/xchem-fragalysis-2/maxwin/BulkDock/SCRATCH/511025/C92079-P28/C92079-P28.minimised.mol

>  <scratch_subdir>  (787) 
/opt/xchem-fragalysis-2/maxwin/BulkDock/SCRATCH/511025/C92079-P28

>  <fragmenstein_runtime>  (787) 
33.40270256996155

>  <fragmenstein_outcome>  (787) 
too moved

>  <fragmenstein_mode>  (787) 
expansion

>  <fragmenstein_error>  (787) 


$$$$
C92079-P54
     RDKit          3D

 45 46  0  0  0  0  0  0  0  0999 V2000
  -18.6638  -25.1561   14.8067 C   0  0  0  0  0  0  0  0  0  0  0  0
  -17.8041  -25.4974   16.3638 S   0  0  0  0  0  0  0  0  0  0  0  0
  -18.4114  -27.1951   16.6559 C   0  0  0  0  0  0  0  0  0  0  0  0
  -17.9139  -27.7327   17.9930 C   0  0  0  0  0  0  0  0  0  0  0  0
  -16.5054  -28.3247   17.9325 C   0  0  0  0  0  0  0  0  0  0  0  0
  -16.3647  -29.4930   18.1481 O   0  0  0  0  0  0  0  0  0  0  0  0
  -15.5448  -27.3074   17.6376 N   0  0  0  0  0  0  0  0  0  0  0  0
  -14.1121  -27.3863   17.4126 C   0  0  0  0  0  0  0  0  0  0  0  0
  -13.3548  -26.2436   18.1216 C   0  0  0  0  0  0  0  0  0  0  0  0
  -13.5775  -26.1301   19.5631 N   0  0  0  0  0  0  0  0  0  0  0  0
  -13.1963  -25.0040   20.5685 C   0  0  0  0  0  0  0  0  0  0  0  0
  -12.5591  -24.0124   20.3838 O   0  0  0  0  0  0  0  0  0  0  0  0
  -13.7133  -25.0603   22.2340 C   0  0  0  0  0  0  0  0  0  0  0  0
  -13.5679  -23.5986   23.1827 C   0  0  0  0  0  0  0  0  0  0  0  0
  -13.8025  -23.4118   24.5326 N   0  0  0  0  0  0  0  0  0  0  0  0
  -14.1938  -24.5427   25.1653 C   0  0  0  0  0  0  0  0  0  0  0  0
  -14.4001  -25.7720   24.4950 C   0  0  0  0  0  0  0  0  0  0  0  0
  -14.2080  -26.0945   23.0683 N   0  0  0  0  0  0  0  0  0  0  0  0
  -13.7983  -27.5111   15.8920 C   0  0  0  0  0  0  0  0  0  0  0  0
  -14.2052  -26.3236   15.0218 C   0  0  0  0  0  0  0  0  0  0  0  0
  -13.1009  -26.2307   13.9918 C   0  0  0  0  0  0  0  0  0  0  0  0
  -11.9272  -26.6562   14.6812 O   0  0  0  0  0  0  0  0  0  0  0  0
  -12.3172  -27.7155   15.5600 C   0  0  0  0  0  0  0  0  0  0  0  0
  -19.7460  -25.2071   14.9505 H   0  0  0  0  0  0  0  0  0  0  0  0
  -18.3580  -25.8728   14.0402 H   0  0  0  0  0  0  0  0  0  0  0  0
  -18.4037  -24.1502   14.4666 H   0  0  0  0  0  0  0  0  0  0  0  0
  -19.5055  -27.1604   16.6675 H   0  0  0  0  0  0  0  0  0  0  0  0
  -18.0883  -27.8378   15.8306 H   0  0  0  0  0  0  0  0  0  0  0  0
  -18.5808  -28.5506   18.2973 H   0  0  0  0  0  0  0  0  0  0  0  0
  -17.9649  -26.9883   18.7947 H   0  0  0  0  0  0  0  0  0  0  0  0
  -16.0359  -26.4375   17.4281 H   0  0  0  0  0  0  0  0  0  0  0  0
  -13.7981  -28.3288   17.8820 H   0  0  0  0  0  0  0  0  0  0  0  0
  -12.3060  -26.5012   17.9840 H   0  0  0  0  0  0  0  0  0  0  0  0
  -13.6256  -25.2793   17.6934 H   0  0  0  0  0  0  0  0  0  0  0  0
  -14.1691  -26.7597   19.9966 H   0  0  0  0  0  0  0  0  0  0  0  0
  -13.1555  -22.7158   22.6847 H   0  0  0  0  0  0  0  0  0  0  0  0
  -14.3841  -24.4456   26.2300 H   0  0  0  0  0  0  0  0  0  0  0  0
  -14.7726  -26.6081   25.0863 H   0  0  0  0  0  0  0  0  0  0  0  0
  -14.3410  -28.3962   15.5297 H   0  0  0  0  0  0  0  0  0  0  0  0
  -14.2599  -25.3978   15.5988 H   0  0  0  0  0  0  0  0  0  0  0  0
  -15.1830  -26.4644   14.5510 H   0  0  0  0  0  0  0  0  0  0  0  0
  -13.2794  -26.9097   13.1506 H   0  0  0  0  0  0  0  0  0  0  0  0
  -12.9629  -25.2193   13.6044 H   0  0  0  0  0  0  0  0  0  0  0  0
  -12.1789  -28.6611   15.0224 H   0  0  0  0  0  0  0  0  0  0  0  0
  -11.6463  -27.7367   16.4212 H   0  0  0  0  0  0  0  0  0  0  0  0
  1  2  1  0
  2  3  1  0
  3  4  1  0
  4  5  1  0
  5  6  2  0
  5  7  1  0
  7  8  1  0
  8  9  1  0
  9 10  1  0
 10 11  1  0
 11 12  2  0
 11 13  1  0
 13 14  2  0
 14 15  1  0
 15 16  2  0
 16 17  1  0
 17 18  2  0
  8 19  1  0
 19 20  1  0
 20 21  1  0
 21 22  1  0
 22 23  1  0
 18 13  1  0
 23 19  1  0
  1 24  1  0
  1 25  1  0
  1 26  1  0
  3 27  1  0
  3 28  1  0
  4 29  1  0
  4 30  1  0
  7 31  1  0
  8 32  1  0
  9 33  1  0
  9 34  1  0
 10 35  1  0
 14 36  1  0
 16 37  1  0
 17 38  1  0
 19 39  1  0
 20 40  1  0
 20 41  1  0
 21 42  1  0
 21 43  1  0
 23 44  1  0
 23 45  1  0
M  END
>  <Energy>  (788) 
181.20697801509513

>  <compound_id>  (788) 
92079

>  <target_id>  (788) 
1

>  <reference_id>  (788) 
54

>  <inspiration_ids>  (788) 
[28, 54]

>  <energy_score>  (788) 
52.127321261766156

>  <distance_score>  (788) 
6.355131329862669

>  <path>  (788) 
/opt/xchem-fragalysis-2/maxwin/BulkDock/SCRATCH/511025/C92079-P54/C92079-P54.minimised.mol

>  <scratch_subdir>  (788) 
/opt/xchem-fragalysis-2/maxwin/BulkDock/SCRATCH/511025/C92079-P54

>  <fragmenstein_runtime>  (788) 
34.38620162010193

>  <fragmenstein_outcome>  (788) 
too moved

>  <fragmenstein_mode>  (788) 
expansion

>  <fragmenstein_error>  (788) 


$$$$
C43822-P28
     RDKit          3D

 50 51  0  0  0  0  0  0  0  0999 V2000
  -10.2632  -18.6604   15.8924 C   0  0  0  0  0  0  0  0  0  0  0  0
   -9.3755  -18.3607   17.2227 C   0  0  0  0  0  0  0  0  0  0  0  0
   -8.0872  -17.2304   17.2337 C   0  0  0  0  0  0  0  0  0  0  0  0
   -8.4129  -19.9384   17.8544 C   0  0  0  0  0  0  0  0  0  0  0  0
   -9.0560  -21.1408   18.1522 C   0  0  0  0  0  0  0  0  0  0  0  0
   -9.4887  -21.8805   16.2778 C   0  0  0  0  0  0  0  0  0  0  0  0
   -9.9340  -23.1182   15.5004 N   0  0  0  0  0  0  0  0  0  0  0  0
   -9.8786  -23.4215   14.0853 C   0  0  0  0  0  0  0  0  0  0  0  0
   -9.3977  -22.8128   13.1741 O   0  0  0  0  0  0  0  0  0  0  0  0
  -10.5005  -24.8240   13.9264 C   0  0  0  0  0  0  0  0  0  0  0  0
  -10.5982  -25.4116   12.5560 C   0  0  0  0  0  0  0  0  0  0  0  0
  -10.4167  -26.7645   12.3293 C   0  0  0  0  0  0  0  0  0  0  0  0
  -10.6035  -27.3642   11.1373 N   0  0  0  0  0  0  0  0  0  0  0  0
  -10.9755  -26.5517   10.1374 C   0  0  0  0  0  0  0  0  0  0  0  0
  -11.1945  -25.2311   10.2355 N   0  0  0  0  0  0  0  0  0  0  0  0
  -11.0063  -24.6933   11.4564 C   0  0  0  0  0  0  0  0  0  0  0  0
   -9.5833  -21.1826   20.0162 N   0  0  0  0  0  0  0  0  0  0  0  0
  -11.0381  -21.6174   20.7217 C   0  0  0  0  0  0  0  0  0  0  0  0
  -12.0346  -22.0781   20.2097 O   0  0  0  0  0  0  0  0  0  0  0  0
  -11.2986  -21.3428   22.1558 C   0  0  0  0  0  0  0  0  0  0  0  0
  -12.5596  -22.0113   22.7901 C   0  0  0  0  0  0  0  0  0  0  0  0
  -12.2644  -22.2843   24.1996 C   0  0  0  0  0  0  0  0  0  0  0  0
  -10.9690  -22.7347   23.9136 O   0  0  0  0  0  0  0  0  0  0  0  0
  -10.3624  -21.6851   23.1587 C   0  0  0  0  0  0  0  0  0  0  0  0
  -10.5075  -18.2672   14.8871 H   0  0  0  0  0  0  0  0  0  0  0  0
  -11.2544  -18.3213   16.2120 H   0  0  0  0  0  0  0  0  0  0  0  0
  -10.1481  -19.6398   15.5510 H   0  0  0  0  0  0  0  0  0  0  0  0
  -10.2212  -18.0362   17.7461 H   0  0  0  0  0  0  0  0  0  0  0  0
   -7.6303  -17.0774   16.2529 H   0  0  0  0  0  0  0  0  0  0  0  0
   -8.3911  -16.2493   17.6160 H   0  0  0  0  0  0  0  0  0  0  0  0
   -7.2856  -17.5652   17.9005 H   0  0  0  0  0  0  0  0  0  0  0  0
   -7.6726  -20.5132   17.3688 H   0  0  0  0  0  0  0  0  0  0  0  0
   -7.6059  -19.5755   18.5441 H   0  0  0  0  0  0  0  0  0  0  0  0
   -9.6376  -21.9571   18.1499 H   0  0  0  0  0  0  0  0  0  0  0  0
   -8.5525  -22.2009   15.7740 H   0  0  0  0  0  0  0  0  0  0  0  0
   -9.9303  -21.1775   15.6340 H   0  0  0  0  0  0  0  0  0  0  0  0
  -10.4807  -23.8022   15.9540 H   0  0  0  0  0  0  0  0  0  0  0  0
  -11.5199  -24.7983   14.3288 H   0  0  0  0  0  0  0  0  0  0  0  0
   -9.9129  -25.5027   14.5590 H   0  0  0  0  0  0  0  0  0  0  0  0
  -10.1163  -27.4368   13.1289 H   0  0  0  0  0  0  0  0  0  0  0  0
  -11.1120  -27.0004    9.1597 H   0  0  0  0  0  0  0  0  0  0  0  0
  -11.1991  -23.6271   11.5225 H   0  0  0  0  0  0  0  0  0  0  0  0
   -8.9840  -20.7500   20.7104 H   0  0  0  0  0  0  0  0  0  0  0  0
  -11.5238  -20.3044   22.1578 H   0  0  0  0  0  0  0  0  0  0  0  0
  -13.4686  -21.5141   22.9694 H   0  0  0  0  0  0  0  0  0  0  0  0
  -12.8658  -22.8455   22.1898 H   0  0  0  0  0  0  0  0  0  0  0  0
  -12.9190  -23.0207   24.6710 H   0  0  0  0  0  0  0  0  0  0  0  0
  -12.2703  -21.3780   24.8149 H   0  0  0  0  0  0  0  0  0  0  0  0
   -9.3524  -21.9048   22.8533 H   0  0  0  0  0  0  0  0  0  0  0  0
  -10.4705  -20.7776   23.7453 H   0  0  0  0  0  0  0  0  0  0  0  0
  1  2  1  0
  2  3  1  0
  2  4  1  0
  4  5  1  0
  5  6  1  0
  6  7  1  0
  7  8  1  0
  8  9  2  0
  8 10  1  0
 10 11  1  0
 11 12  2  0
 12 13  1  0
 13 14  2  0
 14 15  1  0
 15 16  2  0
  5 17  1  0
 17 18  1  0
 18 19  2  0
 18 20  1  0
 20 21  1  0
 21 22  1  0
 22 23  1  0
 23 24  1  0
 16 11  1  0
 24 20  1  0
  1 25  1  0
  1 26  1  0
  1 27  1  0
  2 28  1  0
  3 29  1  0
  3 30  1  0
  3 31  1  0
  4 32  1  0
  4 33  1  0
  5 34  1  0
  6 35  1  0
  6 36  1  0
  7 37  1  0
 10 38  1  0
 10 39  1  0
 12 40  1  0
 14 41  1  0
 16 42  1  0
 17 43  1  0
 20 44  1  0
 21 45  1  0
 21 46  1  0
 22 47  1  0
 22 48  1  0
 24 49  1  0
 24 50  1  0
M  END
>  <Energy>  (789) 
460.04847718483978

>  <compound_id>  (789) 
43822

>  <target_id>  (789) 
1

>  <reference_id>  (789) 
28

>  <inspiration_ids>  (789) 
[28, 54]

>  <energy_score>  (789) 
426.7598858541133

>  <distance_score>  (789) 
6.503948717659539

>  <path>  (789) 
/opt/xchem-fragalysis-2/maxwin/BulkDock/SCRATCH/511025/C43822-P28/C43822-P28.minimised.mol

>  <scratch_subdir>  (789) 
/opt/xchem-fragalysis-2/maxwin/BulkDock/SCRATCH/511025/C43822-P28

>  <fragmenstein_runtime>  (789) 
48.298590898513794

>  <fragmenstein_outcome>  (789) 
too moved

>  <fragmenstein_mode>  (789) 
expansion

>  <fragmenstein_error>  (789) 


$$$$
C43822-P54
     RDKit          3D

 50 51  0  0  0  0  0  0  0  0999 V2000
  -11.4868  -19.8085   13.6030 C   0  0  0  0  0  0  0  0  0  0  0  0
  -10.5805  -20.7549   14.9509 C   0  0  0  0  0  0  0  0  0  0  0  0
  -10.4989  -22.2521   13.7626 C   0  0  0  0  0  0  0  0  0  0  0  0
   -9.7570  -20.4391   16.7248 C   0  0  0  0  0  0  0  0  0  0  0  0
   -9.2572  -21.5421   17.4470 C   0  0  0  0  0  0  0  0  0  0  0  0
   -9.6514  -22.8776   15.9263 C   0  0  0  0  0  0  0  0  0  0  0  0
   -9.6220  -24.4493   15.3464 N   0  0  0  0  0  0  0  0  0  0  0  0
  -10.5390  -25.1669   14.4511 C   0  0  0  0  0  0  0  0  0  0  0  0
  -11.5018  -24.7842   13.8439 O   0  0  0  0  0  0  0  0  0  0  0  0
  -10.1587  -26.6506   14.3716 C   0  0  0  0  0  0  0  0  0  0  0  0
  -10.7110  -27.3579   13.1638 C   0  0  0  0  0  0  0  0  0  0  0  0
  -11.3459  -28.5805   13.2518 C   0  0  0  0  0  0  0  0  0  0  0  0
  -11.8265  -29.2596   12.1911 N   0  0  0  0  0  0  0  0  0  0  0  0
  -11.6499  -28.6709   10.9982 C   0  0  0  0  0  0  0  0  0  0  0  0
  -11.0397  -27.4975   10.7777 N   0  0  0  0  0  0  0  0  0  0  0  0
  -10.5845  -26.8630   11.8777 C   0  0  0  0  0  0  0  0  0  0  0  0
   -9.3236  -21.0049   19.3019 N   0  0  0  0  0  0  0  0  0  0  0  0
  -10.2689  -21.5470   20.5571 C   0  0  0  0  0  0  0  0  0  0  0  0
  -11.1870  -22.3407   20.5607 O   0  0  0  0  0  0  0  0  0  0  0  0
   -9.9263  -21.1130   22.0412 C   0  0  0  0  0  0  0  0  0  0  0  0
  -11.1503  -20.6643   22.7879 C   0  0  0  0  0  0  0  0  0  0  0  0
  -11.5943  -21.7648   23.6927 C   0  0  0  0  0  0  0  0  0  0  0  0
  -10.4069  -22.4504   24.0513 O   0  0  0  0  0  0  0  0  0  0  0  0
   -9.3922  -22.0403   23.1156 C   0  0  0  0  0  0  0  0  0  0  0  0
  -11.8178  -20.6632   13.0728 H   0  0  0  0  0  0  0  0  0  0  0  0
  -10.8863  -19.1795   12.9221 H   0  0  0  0  0  0  0  0  0  0  0  0
  -12.3901  -19.3223   13.8413 H   0  0  0  0  0  0  0  0  0  0  0  0
  -10.5950  -19.6454   14.9512 H   0  0  0  0  0  0  0  0  0  0  0  0
   -9.5961  -22.8547   13.7823 H   0  0  0  0  0  0  0  0  0  0  0  0
  -10.4378  -21.9787   12.6798 H   0  0  0  0  0  0  0  0  0  0  0  0
  -11.4086  -22.7715   13.5942 H   0  0  0  0  0  0  0  0  0  0  0  0
  -10.1289  -19.4119   16.8076 H   0  0  0  0  0  0  0  0  0  0  0  0
   -8.7234  -20.0421   16.9089 H   0  0  0  0  0  0  0  0  0  0  0  0
   -9.7086  -22.2588   18.0086 H   0  0  0  0  0  0  0  0  0  0  0  0
   -9.9501  -23.4784   16.6620 H   0  0  0  0  0  0  0  0  0  0  0  0
   -8.6379  -23.0279   15.5137 H   0  0  0  0  0  0  0  0  0  0  0  0
   -8.9813  -25.0956   15.7417 H   0  0  0  0  0  0  0  0  0  0  0  0
   -9.0777  -26.7800   14.3529 H   0  0  0  0  0  0  0  0  0  0  0  0
  -10.5339  -27.1189   15.2900 H   0  0  0  0  0  0  0  0  0  0  0  0
  -11.4960  -29.0734   14.2084 H   0  0  0  0  0  0  0  0  0  0  0  0
  -12.0329  -29.1958   10.1302 H   0  0  0  0  0  0  0  0  0  0  0  0
  -10.1064  -25.9051   11.6836 H   0  0  0  0  0  0  0  0  0  0  0  0
   -8.7016  -20.2739   19.6340 H   0  0  0  0  0  0  0  0  0  0  0  0
   -9.0989  -20.4476   22.0293 H   0  0  0  0  0  0  0  0  0  0  0  0
  -11.9218  -20.4129   22.0949 H   0  0  0  0  0  0  0  0  0  0  0  0
  -10.9082  -19.8160   23.4149 H   0  0  0  0  0  0  0  0  0  0  0  0
  -12.2968  -22.4188   23.1830 H   0  0  0  0  0  0  0  0  0  0  0  0
  -12.0950  -21.4088   24.5895 H   0  0  0  0  0  0  0  0  0  0  0  0
   -8.6816  -22.8323   22.9762 H   0  0  0  0  0  0  0  0  0  0  0  0
   -8.6008  -21.4895   23.5641 H   0  0  0  0  0  0  0  0  0  0  0  0
  1  2  1  0
  2  3  1  0
  2  4  1  0
  4  5  1  0
  5  6  1  0
  6  7  1  0
  7  8  1  0
  8  9  2  0
  8 10  1  0
 10 11  1  0
 11 12  2  0
 12 13  1  0
 13 14  2  0
 14 15  1  0
 15 16  2  0
  5 17  1  0
 17 18  1  0
 18 19  2  0
 18 20  1  0
 20 21  1  0
 21 22  1  0
 22 23  1  0
 23 24  1  0
 16 11  1  0
 24 20  1  0
  1 25  1  0
  1 26  1  0
  1 27  1  0
  2 28  1  0
  3 29  1  0
  3 30  1  0
  3 31  1  0
  4 32  1  0
  4 33  1  0
  5 34  1  0
  6 35  1  0
  6 36  1  0
  7 37  1  0
 10 38  1  0
 10 39  1  0
 12 40  1  0
 14 41  1  0
 16 42  1  0
 17 43  1  0
 20 44  1  0
 21 45  1  0
 21 46  1  0
 22 47  1  0
 22 48  1  0
 24 49  1  0
 24 50  1  0
M  END
>  <Energy>  (790) 
654.0220445373061

>  <compound_id>  (790) 
43822

>  <target_id>  (790) 
1

>  <reference_id>  (790) 
54

>  <inspiration_ids>  (790) 
[28, 54]

>  <energy_score>  (790) 
620.7334532065668

>  <distance_score>  (790) 
6.278479184677728

>  <path>  (790) 
/opt/xchem-fragalysis-2/maxwin/BulkDock/SCRATCH/511025/C43822-P54/C43822-P54.minimised.mol

>  <scratch_subdir>  (790) 
/opt/xchem-fragalysis-2/maxwin/BulkDock/SCRATCH/511025/C43822-P54

>  <fragmenstein_runtime>  (790) 
48.08705973625183

>  <fragmenstein_outcome>  (790) 
too moved

>  <fragmenstein_mode>  (790) 
expansion

>  <fragmenstein_error>  (790) 


$$$$
C92083-P28
     RDKit          3D

 48 49  0  0  0  0  0  0  0  0999 V2000
  -17.3852  -25.7677   16.3734 C   0  0  0  0  0  0  0  0  0  0  0  0
  -16.2348  -25.4430   17.3199 C   0  0  0  0  0  0  0  0  0  0  0  0
  -14.9197  -26.0471   16.8316 C   0  0  0  0  0  0  0  0  0  0  0  0
  -13.6335  -25.5219   17.3639 N   0  0  0  0  0  0  0  0  0  0  0  0
  -13.5054  -25.6061   18.9070 C   0  0  0  0  0  0  0  0  0  0  0  0
  -12.7897  -24.2628   19.9443 C   0  0  0  0  0  0  0  0  0  0  0  0
  -12.2666  -23.2975   21.2524 N   0  0  0  0  0  0  0  0  0  0  0  0
  -13.0618  -22.7700   22.5506 C   0  0  0  0  0  0  0  0  0  0  0  0
  -14.2341  -22.8595   22.8404 O   0  0  0  0  0  0  0  0  0  0  0  0
  -12.3710  -22.2205   23.6091 C   0  0  0  0  0  0  0  0  0  0  0  0
  -12.9513  -23.0622   24.7846 C   0  0  0  0  0  0  0  0  0  0  0  0
  -12.6510  -22.9900   26.0644 N   0  0  0  0  0  0  0  0  0  0  0  0
  -12.1640  -21.7952   26.2076 C   0  0  0  0  0  0  0  0  0  0  0  0
  -12.0352  -20.9126   25.0164 C   0  0  0  0  0  0  0  0  0  0  0  0
  -11.7073  -21.1537   23.7351 N   0  0  0  0  0  0  0  0  0  0  0  0
  -12.5386  -26.3590   16.6950 C   0  0  0  0  0  0  0  0  0  0  0  0
  -12.5106  -26.6558   15.1610 C   0  0  0  0  0  0  0  0  0  0  0  0
  -12.1187  -25.5347   14.1954 C   0  0  0  0  0  0  0  0  0  0  0  0
  -12.2041  -25.9532   12.7359 C   0  0  0  0  0  0  0  0  0  0  0  0
  -11.3585  -24.8990   12.0575 C   0  0  0  0  0  0  0  0  0  0  0  0
  -10.3001  -24.5920   12.9666 O   0  0  0  0  0  0  0  0  0  0  0  0
  -10.6593  -25.0942   14.2651 C   0  0  0  0  0  0  0  0  0  0  0  0
  -17.2131  -25.3352   15.3825 H   0  0  0  0  0  0  0  0  0  0  0  0
  -17.5074  -26.8498   16.2611 H   0  0  0  0  0  0  0  0  0  0  0  0
  -18.3221  -25.3572   16.7631 H   0  0  0  0  0  0  0  0  0  0  0  0
  -16.4971  -25.8648   18.2931 H   0  0  0  0  0  0  0  0  0  0  0  0
  -16.1505  -24.3575   17.4049 H   0  0  0  0  0  0  0  0  0  0  0  0
  -14.9097  -25.8627   15.7516 H   0  0  0  0  0  0  0  0  0  0  0  0
  -14.9691  -27.1345   16.9782 H   0  0  0  0  0  0  0  0  0  0  0  0
  -14.4159  -26.0082   19.3482 H   0  0  0  0  0  0  0  0  0  0  0  0
  -12.8272  -26.4523   19.0357 H   0  0  0  0  0  0  0  0  0  0  0  0
  -13.0595  -25.0453   20.6160 H   0  0  0  0  0  0  0  0  0  0  0  0
  -11.8127  -24.7447   19.9986 H   0  0  0  0  0  0  0  0  0  0  0  0
  -11.2904  -22.9752   21.2924 H   0  0  0  0  0  0  0  0  0  0  0  0
  -13.6809  -23.8603   24.6091 H   0  0  0  0  0  0  0  0  0  0  0  0
  -12.0081  -21.4770   27.2288 H   0  0  0  0  0  0  0  0  0  0  0  0
  -13.0112  -20.4506   24.8221 H   0  0  0  0  0  0  0  0  0  0  0  0
  -11.5627  -25.9530   16.9534 H   0  0  0  0  0  0  0  0  0  0  0  0
  -12.5757  -27.3539   17.1633 H   0  0  0  0  0  0  0  0  0  0  0  0
  -13.4679  -27.0871   14.8474 H   0  0  0  0  0  0  0  0  0  0  0  0
  -11.7912  -27.4766   15.0242 H   0  0  0  0  0  0  0  0  0  0  0  0
  -12.7902  -24.6796   14.3189 H   0  0  0  0  0  0  0  0  0  0  0  0
  -13.2275  -25.9836   12.3511 H   0  0  0  0  0  0  0  0  0  0  0  0
  -11.7537  -26.9430   12.5915 H   0  0  0  0  0  0  0  0  0  0  0  0
  -10.9438  -25.2392   11.1048 H   0  0  0  0  0  0  0  0  0  0  0  0
  -11.9324  -23.9836   11.8847 H   0  0  0  0  0  0  0  0  0  0  0  0
  -10.4804  -24.3086   14.9972 H   0  0  0  0  0  0  0  0  0  0  0  0
   -9.9895  -25.9313   14.4905 H   0  0  0  0  0  0  0  0  0  0  0  0
  1  2  1  0
  2  3  1  0
  3  4  1  0
  4  5  1  0
  5  6  1  0
  6  7  1  0
  7  8  1  0
  8  9  2  0
  8 10  1  0
 10 11  2  0
 11 12  1  0
 12 13  2  0
 13 14  1  0
 14 15  2  0
  4 16  1  0
 16 17  1  0
 17 18  1  0
 18 19  1  0
 19 20  1  0
 20 21  1  0
 21 22  1  0
 15 10  1  0
 22 18  1  0
  1 23  1  0
  1 24  1  0
  1 25  1  0
  2 26  1  0
  2 27  1  0
  3 28  1  0
  3 29  1  0
  5 30  1  0
  5 31  1  0
  6 32  1  0
  6 33  1  0
  7 34  1  0
 11 35  1  0
 13 36  1  0
 14 37  1  0
 16 38  1  0
 16 39  1  0
 17 40  1  0
 17 41  1  0
 18 42  1  0
 19 43  1  0
 19 44  1  0
 20 45  1  0
 20 46  1  0
 22 47  1  0
 22 48  1  0
M  END
>  <Energy>  (791) 
403.05619977345231

>  <compound_id>  (791) 
92083

>  <target_id>  (791) 
1

>  <reference_id>  (791) 
28

>  <inspiration_ids>  (791) 
[28, 54]

>  <energy_score>  (791) 
239.3467010737478

>  <distance_score>  (791) 
4.453644474619775

>  <path>  (791) 
/opt/xchem-fragalysis-2/maxwin/BulkDock/SCRATCH/511025/C92083-P28/C92083-P28.minimised.mol

>  <scratch_subdir>  (791) 
/opt/xchem-fragalysis-2/maxwin/BulkDock/SCRATCH/511025/C92083-P28

>  <fragmenstein_runtime>  (791) 
16.983453035354614

>  <fragmenstein_outcome>  (791) 
too moved

>  <fragmenstein_mode>  (791) 
expansion

>  <fragmenstein_error>  (791) 


$$$$
C92083-P54
     RDKit          3D

 48 49  0  0  0  0  0  0  0  0999 V2000
  -15.9368  -26.4166   15.7362 C   0  0  0  0  0  0  0  0  0  0  0  0
  -16.1041  -26.6432   17.2315 C   0  0  0  0  0  0  0  0  0  0  0  0
  -14.8361  -27.1608   17.9297 C   0  0  0  0  0  0  0  0  0  0  0  0
  -13.6745  -26.2845   17.7828 N   0  0  0  0  0  0  0  0  0  0  0  0
  -13.7028  -24.9968   18.5646 C   0  0  0  0  0  0  0  0  0  0  0  0
  -12.9858  -24.5877   20.1308 C   0  0  0  0  0  0  0  0  0  0  0  0
  -12.4869  -23.1263   20.9103 N   0  0  0  0  0  0  0  0  0  0  0  0
  -12.8107  -22.5798   22.2977 C   0  0  0  0  0  0  0  0  0  0  0  0
  -13.5652  -23.0007   23.1497 O   0  0  0  0  0  0  0  0  0  0  0  0
  -12.0339  -21.3837   22.8391 C   0  0  0  0  0  0  0  0  0  0  0  0
  -12.3767  -21.4182   24.2027 C   0  0  0  0  0  0  0  0  0  0  0  0
  -11.7296  -22.2173   25.0902 N   0  0  0  0  0  0  0  0  0  0  0  0
  -10.5506  -22.6174   24.6333 C   0  0  0  0  0  0  0  0  0  0  0  0
  -10.0207  -22.0674   23.4492 C   0  0  0  0  0  0  0  0  0  0  0  0
  -10.7460  -21.4125   22.5173 N   0  0  0  0  0  0  0  0  0  0  0  0
  -12.4494  -26.9660   17.3278 C   0  0  0  0  0  0  0  0  0  0  0  0
  -12.4779  -27.6471   15.9209 C   0  0  0  0  0  0  0  0  0  0  0  0
  -12.1227  -26.7624   14.7158 C   0  0  0  0  0  0  0  0  0  0  0  0
  -12.2822  -27.4576   13.3750 C   0  0  0  0  0  0  0  0  0  0  0  0
  -11.4657  -26.5681   12.4601 C   0  0  0  0  0  0  0  0  0  0  0  0
  -10.3848  -26.0624   13.2451 O   0  0  0  0  0  0  0  0  0  0  0  0
  -10.6547  -26.3511   14.6248 C   0  0  0  0  0  0  0  0  0  0  0  0
  -15.1888  -25.6457   15.5287 H   0  0  0  0  0  0  0  0  0  0  0  0
  -16.8846  -26.0850   15.2997 H   0  0  0  0  0  0  0  0  0  0  0  0
  -15.6403  -27.3391   15.2286 H   0  0  0  0  0  0  0  0  0  0  0  0
  -16.4527  -25.7123   17.6883 H   0  0  0  0  0  0  0  0  0  0  0  0
  -16.9050  -27.3765   17.3865 H   0  0  0  0  0  0  0  0  0  0  0  0
  -14.6319  -28.1636   17.5359 H   0  0  0  0  0  0  0  0  0  0  0  0
  -15.0465  -27.3309   18.9877 H   0  0  0  0  0  0  0  0  0  0  0  0
  -14.7384  -24.6932   18.5265 H   0  0  0  0  0  0  0  0  0  0  0  0
  -13.3900  -24.2635   17.8650 H   0  0  0  0  0  0  0  0  0  0  0  0
  -13.5394  -25.1361   20.8949 H   0  0  0  0  0  0  0  0  0  0  0  0
  -12.0251  -24.9779   20.1878 H   0  0  0  0  0  0  0  0  0  0  0  0
  -11.8716  -22.4745   20.4307 H   0  0  0  0  0  0  0  0  0  0  0  0
  -13.4151  -21.2382   24.4642 H   0  0  0  0  0  0  0  0  0  0  0  0
   -9.9867  -23.2521   25.2972 H   0  0  0  0  0  0  0  0  0  0  0  0
   -8.9698  -22.1891   23.2114 H   0  0  0  0  0  0  0  0  0  0  0  0
  -12.2162  -27.7383   18.0725 H   0  0  0  0  0  0  0  0  0  0  0  0
  -11.5754  -26.3269   17.3023 H   0  0  0  0  0  0  0  0  0  0  0  0
  -13.4487  -28.1189   15.7429 H   0  0  0  0  0  0  0  0  0  0  0  0
  -11.7610  -28.4792   15.9553 H   0  0  0  0  0  0  0  0  0  0  0  0
  -12.7750  -25.8836   14.6921 H   0  0  0  0  0  0  0  0  0  0  0  0
  -13.3233  -27.5494   13.0525 H   0  0  0  0  0  0  0  0  0  0  0  0
  -11.8444  -28.4628   13.4083 H   0  0  0  0  0  0  0  0  0  0  0  0
  -11.0750  -27.1054   11.5915 H   0  0  0  0  0  0  0  0  0  0  0  0
  -12.0534  -25.7155   12.1084 H   0  0  0  0  0  0  0  0  0  0  0  0
  -10.4075  -25.4706   15.2143 H   0  0  0  0  0  0  0  0  0  0  0  0
   -9.9847  -27.1630   14.9294 H   0  0  0  0  0  0  0  0  0  0  0  0
  1  2  1  0
  2  3  1  0
  3  4  1  0
  4  5  1  0
  5  6  1  0
  6  7  1  0
  7  8  1  0
  8  9  2  0
  8 10  1  0
 10 11  2  0
 11 12  1  0
 12 13  2  0
 13 14  1  0
 14 15  2  0
  4 16  1  0
 16 17  1  0
 17 18  1  0
 18 19  1  0
 19 20  1  0
 20 21  1  0
 21 22  1  0
 15 10  1  0
 22 18  1  0
  1 23  1  0
  1 24  1  0
  1 25  1  0
  2 26  1  0
  2 27  1  0
  3 28  1  0
  3 29  1  0
  5 30  1  0
  5 31  1  0
  6 32  1  0
  6 33  1  0
  7 34  1  0
 11 35  1  0
 13 36  1  0
 14 37  1  0
 16 38  1  0
 16 39  1  0
 17 40  1  0
 17 41  1  0
 18 42  1  0
 19 43  1  0
 19 44  1  0
 20 45  1  0
 20 46  1  0
 22 47  1  0
 22 48  1  0
M  END
>  <Energy>  (792) 
263.55621496324022

>  <compound_id>  (792) 
92083

>  <target_id>  (792) 
1

>  <reference_id>  (792) 
54

>  <inspiration_ids>  (792) 
[28, 54]

>  <energy_score>  (792) 
99.84671626353787

>  <distance_score>  (792) 
5.399746755998904

>  <path>  (792) 
/opt/xchem-fragalysis-2/maxwin/BulkDock/SCRATCH/511025/C92083-P54/C92083-P54.minimised.mol

>  <scratch_subdir>  (792) 
/opt/xchem-fragalysis-2/maxwin/BulkDock/SCRATCH/511025/C92083-P54

>  <fragmenstein_runtime>  (792) 
15.69570803642273

>  <fragmenstein_outcome>  (792) 
too moved

>  <fragmenstein_mode>  (792) 
expansion

>  <fragmenstein_error>  (792) 


$$$$
C92084-P28
     RDKit          3D

 46 47  0  0  0  0  0  0  0  0999 V2000
  -12.4796  -23.8575   12.4851 C   0  0  0  0  0  0  0  0  0  0  0  0
  -11.8253  -23.2963   13.6074 O   0  0  0  0  0  0  0  0  0  0  0  0
  -10.9740  -22.1689   13.3474 C   0  0  0  0  0  0  0  0  0  0  0  0
  -10.0056  -21.5941   14.4800 C   0  0  0  0  0  0  0  0  0  0  0  0
   -9.5212  -22.1160   15.9090 C   0  0  0  0  0  0  0  0  0  0  0  0
   -9.0413  -21.0607   17.6677 C   0  0  0  0  0  0  0  0  0  0  0  0
   -9.2766  -20.9721   19.6531 N   0  0  0  0  0  0  0  0  0  0  0  0
  -10.5808  -21.5414   20.6751 C   0  0  0  0  0  0  0  0  0  0  0  0
  -11.6483  -22.0353   20.3384 O   0  0  0  0  0  0  0  0  0  0  0  0
  -10.4362  -21.5911   22.3832 C   0  0  0  0  0  0  0  0  0  0  0  0
  -11.7489  -20.9693   22.6335 C   0  0  0  0  0  0  0  0  0  0  0  0
  -12.1797  -21.0018   24.0498 C   0  0  0  0  0  0  0  0  0  0  0  0
  -12.0054  -22.4206   24.1698 C   0  0  0  0  0  0  0  0  0  0  0  0
  -10.7255  -22.5520   23.4637 O   0  0  0  0  0  0  0  0  0  0  0  0
  -10.0302  -23.6447   15.5048 N   0  0  0  0  0  0  0  0  0  0  0  0
   -9.8147  -24.4550   14.2691 C   0  0  0  0  0  0  0  0  0  0  0  0
   -9.1497  -24.2309   13.2886 O   0  0  0  0  0  0  0  0  0  0  0  0
  -10.5302  -25.7963   14.4484 C   0  0  0  0  0  0  0  0  0  0  0  0
  -10.3586  -26.6966   13.3161 N   0  0  0  0  0  0  0  0  0  0  0  0
  -11.1316  -26.6005   12.2018 N   0  0  0  0  0  0  0  0  0  0  0  0
  -10.7527  -27.6763   11.5094 C   0  0  0  0  0  0  0  0  0  0  0  0
   -9.8642  -28.4391   12.2713 C   0  0  0  0  0  0  0  0  0  0  0  0
   -9.6594  -27.8551   13.4554 N   0  0  0  0  0  0  0  0  0  0  0  0
  -13.3603  -23.2809   12.2292 H   0  0  0  0  0  0  0  0  0  0  0  0
  -11.8065  -23.9683   11.6316 H   0  0  0  0  0  0  0  0  0  0  0  0
  -12.8664  -24.8372   12.7731 H   0  0  0  0  0  0  0  0  0  0  0  0
  -11.6223  -21.3337   13.1419 H   0  0  0  0  0  0  0  0  0  0  0  0
  -10.3967  -22.3436   12.4298 H   0  0  0  0  0  0  0  0  0  0  0  0
  -10.2551  -20.5436   14.5475 H   0  0  0  0  0  0  0  0  0  0  0  0
   -9.0949  -21.8221   13.9066 H   0  0  0  0  0  0  0  0  0  0  0  0
   -8.5038  -22.4037   15.5863 H   0  0  0  0  0  0  0  0  0  0  0  0
   -9.5850  -21.8689   17.9148 H   0  0  0  0  0  0  0  0  0  0  0  0
   -9.3522  -20.0590   17.4698 H   0  0  0  0  0  0  0  0  0  0  0  0
   -8.5696  -20.5386   20.2218 H   0  0  0  0  0  0  0  0  0  0  0  0
   -9.4867  -21.1623   22.6127 H   0  0  0  0  0  0  0  0  0  0  0  0
  -11.7612  -20.1133   22.0398 H   0  0  0  0  0  0  0  0  0  0  0  0
  -12.4913  -21.6158   22.1679 H   0  0  0  0  0  0  0  0  0  0  0  0
  -13.1904  -20.7647   24.3286 H   0  0  0  0  0  0  0  0  0  0  0  0
  -11.5014  -20.4927   24.6696 H   0  0  0  0  0  0  0  0  0  0  0  0
  -12.8449  -22.9096   23.6622 H   0  0  0  0  0  0  0  0  0  0  0  0
  -11.9910  -22.8053   25.1970 H   0  0  0  0  0  0  0  0  0  0  0  0
  -10.7069  -24.0922   16.0715 H   0  0  0  0  0  0  0  0  0  0  0  0
  -11.6034  -25.6621   14.6054 H   0  0  0  0  0  0  0  0  0  0  0  0
  -10.1120  -26.3000   15.3276 H   0  0  0  0  0  0  0  0  0  0  0  0
  -11.1470  -27.8542   10.5193 H   0  0  0  0  0  0  0  0  0  0  0  0
   -9.3768  -29.3743   12.0365 H   0  0  0  0  0  0  0  0  0  0  0  0
  1  2  1  0
  2  3  1  0
  3  4  1  0
  4  5  1  0
  5  6  1  0
  6  7  1  0
  7  8  1  0
  8  9  2  0
  8 10  1  0
 10 11  1  0
 11 12  1  0
 12 13  1  0
 13 14  1  0
  5 15  1  0
 15 16  1  0
 16 17  2  0
 16 18  1  0
 18 19  1  0
 19 20  1  0
 20 21  2  0
 21 22  1  0
 22 23  2  0
 14 10  1  0
 23 19  1  0
  1 24  1  0
  1 25  1  0
  1 26  1  0
  3 27  1  0
  3 28  1  0
  4 29  1  0
  4 30  1  0
  5 31  1  0
  6 32  1  0
  6 33  1  0
  7 34  1  0
 10 35  1  0
 11 36  1  0
 11 37  1  0
 12 38  1  0
 12 39  1  0
 13 40  1  0
 13 41  1  0
 15 42  1  0
 18 43  1  0
 18 44  1  0
 21 45  1  0
 22 46  1  0
M  END
>  <Energy>  (793) 
499.21932113741519

>  <compound_id>  (793) 
92084

>  <target_id>  (793) 
1

>  <reference_id>  (793) 
28

>  <inspiration_ids>  (793) 
[28, 54]

>  <energy_score>  (793) 
413.59100752457255

>  <distance_score>  (793) 
6.573590825090023

>  <path>  (793) 
/opt/xchem-fragalysis-2/maxwin/BulkDock/SCRATCH/511025/C92084-P28/C92084-P28.minimised.mol

>  <scratch_subdir>  (793) 
/opt/xchem-fragalysis-2/maxwin/BulkDock/SCRATCH/511025/C92084-P28

>  <fragmenstein_runtime>  (793) 
56.759766817092896

>  <fragmenstein_outcome>  (793) 
too moved

>  <fragmenstein_mode>  (793) 
expansion

>  <fragmenstein_error>  (793) 


$$$$
C92084-P54
     RDKit          3D

 46 47  0  0  0  0  0  0  0  0999 V2000
  -10.3747  -25.0306   11.6517 C   0  0  0  0  0  0  0  0  0  0  0  0
   -9.3412  -24.7904   12.5992 O   0  0  0  0  0  0  0  0  0  0  0  0
   -9.1949  -23.3904   12.8950 C   0  0  0  0  0  0  0  0  0  0  0  0
  -10.0731  -22.8890   14.0872 C   0  0  0  0  0  0  0  0  0  0  0  0
   -9.6721  -22.9409   15.8721 C   0  0  0  0  0  0  0  0  0  0  0  0
   -9.2358  -21.5085   17.3438 C   0  0  0  0  0  0  0  0  0  0  0  0
   -9.3160  -20.9991   19.2439 N   0  0  0  0  0  0  0  0  0  0  0  0
  -10.3233  -21.5604   20.5191 C   0  0  0  0  0  0  0  0  0  0  0  0
  -11.2622  -22.3328   20.4914 O   0  0  0  0  0  0  0  0  0  0  0  0
   -9.9718  -21.1411   22.1374 C   0  0  0  0  0  0  0  0  0  0  0  0
  -11.2585  -20.6088   22.7035 C   0  0  0  0  0  0  0  0  0  0  0  0
  -11.9680  -21.7183   23.4210 C   0  0  0  0  0  0  0  0  0  0  0  0
  -10.8022  -22.3234   24.0866 C   0  0  0  0  0  0  0  0  0  0  0  0
   -9.6462  -21.9821   23.2933 O   0  0  0  0  0  0  0  0  0  0  0  0
   -9.6038  -24.6307   15.3029 N   0  0  0  0  0  0  0  0  0  0  0  0
  -10.3923  -25.8729   15.7232 C   0  0  0  0  0  0  0  0  0  0  0  0
  -11.2045  -26.0312   16.6110 O   0  0  0  0  0  0  0  0  0  0  0  0
  -10.0147  -27.0454   14.8291 C   0  0  0  0  0  0  0  0  0  0  0  0
  -11.0633  -27.4789   13.9170 N   0  0  0  0  0  0  0  0  0  0  0  0
  -10.8263  -28.5273   13.0813 N   0  0  0  0  0  0  0  0  0  0  0  0
  -11.9773  -28.6092   12.4095 C   0  0  0  0  0  0  0  0  0  0  0  0
  -12.8503  -27.6067   12.8391 C   0  0  0  0  0  0  0  0  0  0  0  0
  -12.2629  -26.8655   13.7813 N   0  0  0  0  0  0  0  0  0  0  0  0
  -10.2238  -24.4442   10.7413 H   0  0  0  0  0  0  0  0  0  0  0  0
  -10.3475  -26.0867   11.3752 H   0  0  0  0  0  0  0  0  0  0  0  0
  -11.3486  -24.8012   12.0857 H   0  0  0  0  0  0  0  0  0  0  0  0
   -9.4448  -22.8242   11.9887 H   0  0  0  0  0  0  0  0  0  0  0  0
   -8.1390  -23.2372   13.1082 H   0  0  0  0  0  0  0  0  0  0  0  0
  -10.6833  -22.0439   13.8158 H   0  0  0  0  0  0  0  0  0  0  0  0
  -10.9028  -23.6144   13.9892 H   0  0  0  0  0  0  0  0  0  0  0  0
  -10.5070  -22.3641   15.7474 H   0  0  0  0  0  0  0  0  0  0  0  0
   -9.6866  -22.2444   17.8739 H   0  0  0  0  0  0  0  0  0  0  0  0
   -9.6181  -20.5812   16.9859 H   0  0  0  0  0  0  0  0  0  0  0  0
   -8.6808  -20.2910   19.5947 H   0  0  0  0  0  0  0  0  0  0  0  0
   -9.1130  -20.5165   22.1229 H   0  0  0  0  0  0  0  0  0  0  0  0
  -11.0483  -19.8370   23.4363 H   0  0  0  0  0  0  0  0  0  0  0  0
  -11.8448  -20.2621   21.8862 H   0  0  0  0  0  0  0  0  0  0  0  0
  -12.4567  -22.3697   22.7081 H   0  0  0  0  0  0  0  0  0  0  0  0
  -12.7327  -21.3718   24.1163 H   0  0  0  0  0  0  0  0  0  0  0  0
  -10.7075  -23.3505   24.3443 H   0  0  0  0  0  0  0  0  0  0  0  0
  -10.8622  -22.0721   25.1438 H   0  0  0  0  0  0  0  0  0  0  0  0
   -9.0897  -24.8333   14.4821 H   0  0  0  0  0  0  0  0  0  0  0  0
   -9.1372  -26.8487   14.2143 H   0  0  0  0  0  0  0  0  0  0  0  0
   -9.7816  -27.8992   15.4757 H   0  0  0  0  0  0  0  0  0  0  0  0
  -12.1161  -29.3770   11.6620 H   0  0  0  0  0  0  0  0  0  0  0  0
  -13.8569  -27.3784   12.5199 H   0  0  0  0  0  0  0  0  0  0  0  0
  1  2  1  0
  2  3  1  0
  3  4  1  0
  4  5  1  0
  5  6  1  0
  6  7  1  0
  7  8  1  0
  8  9  2  0
  8 10  1  0
 10 11  1  0
 11 12  1  0
 12 13  1  0
 13 14  1  0
  5 15  1  0
 15 16  1  0
 16 17  2  0
 16 18  1  0
 18 19  1  0
 19 20  1  0
 20 21  2  0
 21 22  1  0
 22 23  2  0
 14 10  1  0
 23 19  1  0
  1 24  1  0
  1 25  1  0
  1 26  1  0
  3 27  1  0
  3 28  1  0
  4 29  1  0
  4 30  1  0
  5 31  1  0
  6 32  1  0
  6 33  1  0
  7 34  1  0
 10 35  1  0
 11 36  1  0
 11 37  1  0
 12 38  1  0
 12 39  1  0
 13 40  1  0
 13 41  1  0
 15 42  1  0
 18 43  1  0
 18 44  1  0
 21 45  1  0
 22 46  1  0
M  END
>  <Energy>  (794) 
543.14424286147687

>  <compound_id>  (794) 
92084

>  <target_id>  (794) 
1

>  <reference_id>  (794) 
54

>  <inspiration_ids>  (794) 
[28, 54]

>  <energy_score>  (794) 
457.51592924861853

>  <distance_score>  (794) 
6.715017989003477

>  <path>  (794) 
/opt/xchem-fragalysis-2/maxwin/BulkDock/SCRATCH/511025/C92084-P54/C92084-P54.minimised.mol

>  <scratch_subdir>  (794) 
/opt/xchem-fragalysis-2/maxwin/BulkDock/SCRATCH/511025/C92084-P54

>  <fragmenstein_runtime>  (794) 
62.831451654434204

>  <fragmenstein_outcome>  (794) 
too moved

>  <fragmenstein_mode>  (794) 
expansion

>  <fragmenstein_error>  (794) 


$$$$
C92085-P28
     RDKit          3D

 32 33  0  0  0  0  0  0  0  0999 V2000
  -11.3635  -20.6599   23.5408 C   0  0  0  0  0  0  0  0  0  0  0  0
  -10.8745  -22.0101   23.3180 C   0  0  0  0  0  0  0  0  0  0  0  0
  -10.0616  -21.6204   21.9640 N   0  0  0  0  0  0  0  0  0  0  0  0
  -10.4814  -21.5628   20.5933 C   0  0  0  0  0  0  0  0  0  0  0  0
  -11.5670  -21.7173   20.1502 O   0  0  0  0  0  0  0  0  0  0  0  0
   -9.2593  -21.2137   19.2443 O   0  0  0  0  0  0  0  0  0  0  0  0
   -9.1386  -21.2507   17.2889 C   0  0  0  0  0  0  0  0  0  0  0  0
   -9.2566  -22.7003   15.8830 C   0  0  0  0  0  0  0  0  0  0  0  0
   -9.2880  -22.3492   14.4274 C   0  0  0  0  0  0  0  0  0  0  0  0
  -10.0297  -21.1885   14.4550 O   0  0  0  0  0  0  0  0  0  0  0  0
   -9.8829  -20.6379   15.8189 C   0  0  0  0  0  0  0  0  0  0  0  0
  -12.2938  -22.4611   24.1553 C   0  0  0  0  0  0  0  0  0  0  0  0
  -12.2704  -23.0820   25.4454 C   0  0  0  0  0  0  0  0  0  0  0  0
  -13.2930  -23.8498   25.8953 N   0  0  0  0  0  0  0  0  0  0  0  0
  -14.4265  -23.7152   25.1964 C   0  0  0  0  0  0  0  0  0  0  0  0
  -14.5643  -22.7999   24.2034 C   0  0  0  0  0  0  0  0  0  0  0  0
  -13.5046  -22.2704   23.5725 N   0  0  0  0  0  0  0  0  0  0  0  0
  -11.9604  -20.4363   24.4249 H   0  0  0  0  0  0  0  0  0  0  0  0
  -11.9264  -20.4397   22.6429 H   0  0  0  0  0  0  0  0  0  0  0  0
  -10.5147  -20.0210   23.5798 H   0  0  0  0  0  0  0  0  0  0  0  0
  -11.4729  -22.5388   22.5696 H   0  0  0  0  0  0  0  0  0  0  0  0
   -9.1018  -21.3629   22.0120 H   0  0  0  0  0  0  0  0  0  0  0  0
   -8.1309  -20.8353   17.4222 H   0  0  0  0  0  0  0  0  0  0  0  0
  -10.1542  -23.2790   15.9804 H   0  0  0  0  0  0  0  0  0  0  0  0
   -8.5152  -23.4838   15.8227 H   0  0  0  0  0  0  0  0  0  0  0  0
   -8.2983  -22.1752   14.0013 H   0  0  0  0  0  0  0  0  0  0  0  0
   -9.7899  -23.1048   13.8142 H   0  0  0  0  0  0  0  0  0  0  0  0
  -10.1110  -19.5656   15.7778 H   0  0  0  0  0  0  0  0  0  0  0  0
  -10.5419  -21.3722   16.0003 H   0  0  0  0  0  0  0  0  0  0  0  0
  -11.3991  -23.2308   26.0676 H   0  0  0  0  0  0  0  0  0  0  0  0
  -15.2762  -24.3384   25.4316 H   0  0  0  0  0  0  0  0  0  0  0  0
  -15.5521  -22.5480   23.8381 H   0  0  0  0  0  0  0  0  0  0  0  0
  1  2  1  0
  2  3  1  0
  3  4  1  0
  4  5  2  0
  4  6  1  0
  6  7  1  0
  7  8  1  0
  8  9  1  0
  9 10  1  0
 10 11  1  0
  2 12  1  0
 12 13  2  0
 13 14  1  0
 14 15  2  0
 15 16  1  0
 16 17  2  0
 11  7  1  0
 17 12  1  0
  1 18  1  0
  1 19  1  0
  1 20  1  0
  2 21  1  0
  3 22  1  0
  7 23  1  0
  8 24  1  0
  8 25  1  0
  9 26  1  0
  9 27  1  0
 11 28  1  0
 11 29  1  0
 13 30  1  0
 15 31  1  0
 16 32  1  0
M  END
>  <Energy>  (795) 
542.17591102921654

>  <compound_id>  (795) 
92085

>  <target_id>  (795) 
1

>  <reference_id>  (795) 
28

>  <inspiration_ids>  (795) 
[28, 54]

>  <energy_score>  (795) 
504.66691378050075

>  <distance_score>  (795) 
6.883444068236319

>  <path>  (795) 
/opt/xchem-fragalysis-2/maxwin/BulkDock/SCRATCH/511025/C92085-P28/C92085-P28.minimised.mol

>  <scratch_subdir>  (795) 
/opt/xchem-fragalysis-2/maxwin/BulkDock/SCRATCH/511025/C92085-P28

>  <fragmenstein_runtime>  (795) 
15.049389123916626

>  <fragmenstein_outcome>  (795) 
too moved

>  <fragmenstein_mode>  (795) 
expansion

>  <fragmenstein_error>  (795) 


$$$$
C92085-P54
     RDKit          3D

 32 33  0  0  0  0  0  0  0  0999 V2000
  -11.4109  -20.8031   21.7546 C   0  0  0  0  0  0  0  0  0  0  0  0
  -10.0924  -21.3961   21.9706 C   0  0  0  0  0  0  0  0  0  0  0  0
   -9.9414  -21.8243   20.3569 N   0  0  0  0  0  0  0  0  0  0  0  0
   -9.2313  -20.9944   19.0181 C   0  0  0  0  0  0  0  0  0  0  0  0
   -8.6381  -19.9606   19.0954 O   0  0  0  0  0  0  0  0  0  0  0  0
   -9.2975  -21.5147   17.3404 O   0  0  0  0  0  0  0  0  0  0  0  0
   -9.9205  -22.6400   15.9386 C   0  0  0  0  0  0  0  0  0  0  0  0
   -9.1203  -23.8108   15.4171 C   0  0  0  0  0  0  0  0  0  0  0  0
   -9.9643  -24.8385   14.6233 C   0  0  0  0  0  0  0  0  0  0  0  0
  -10.8373  -24.0721   13.8500 O   0  0  0  0  0  0  0  0  0  0  0  0
  -10.3439  -22.7485   14.1450 C   0  0  0  0  0  0  0  0  0  0  0  0
  -10.7307  -22.1534   23.4642 C   0  0  0  0  0  0  0  0  0  0  0  0
  -12.0841  -22.0245   23.9325 C   0  0  0  0  0  0  0  0  0  0  0  0
  -12.6502  -22.4966   25.0987 N   0  0  0  0  0  0  0  0  0  0  0  0
  -11.8056  -22.9938   25.9890 C   0  0  0  0  0  0  0  0  0  0  0  0
  -10.5017  -23.1677   25.6233 C   0  0  0  0  0  0  0  0  0  0  0  0
   -9.9570  -22.8210   24.3738 N   0  0  0  0  0  0  0  0  0  0  0  0
  -11.5244  -20.2906   20.8294 H   0  0  0  0  0  0  0  0  0  0  0  0
  -11.6691  -20.1460   22.5738 H   0  0  0  0  0  0  0  0  0  0  0  0
  -12.0876  -21.6471   21.5964 H   0  0  0  0  0  0  0  0  0  0  0  0
   -9.2749  -20.7674   22.2618 H   0  0  0  0  0  0  0  0  0  0  0  0
  -10.2818  -22.6504   20.0615 H   0  0  0  0  0  0  0  0  0  0  0  0
  -10.1752  -21.6629   15.5679 H   0  0  0  0  0  0  0  0  0  0  0  0
   -8.6039  -24.4196   16.0975 H   0  0  0  0  0  0  0  0  0  0  0  0
   -8.3349  -23.3215   14.8450 H   0  0  0  0  0  0  0  0  0  0  0  0
   -9.3980  -25.4821   13.9469 H   0  0  0  0  0  0  0  0  0  0  0  0
  -10.5281  -25.5148   15.2705 H   0  0  0  0  0  0  0  0  0  0  0  0
   -9.4947  -22.7297   13.4738 H   0  0  0  0  0  0  0  0  0  0  0  0
  -11.0685  -22.0460   13.7381 H   0  0  0  0  0  0  0  0  0  0  0  0
  -12.8699  -21.5355   23.3849 H   0  0  0  0  0  0  0  0  0  0  0  0
  -12.1927  -23.2556   26.9631 H   0  0  0  0  0  0  0  0  0  0  0  0
   -9.8326  -23.5540   26.3752 H   0  0  0  0  0  0  0  0  0  0  0  0
  1  2  1  0
  2  3  1  0
  3  4  1  0
  4  5  2  0
  4  6  1  0
  6  7  1  0
  7  8  1  0
  8  9  1  0
  9 10  1  0
 10 11  1  0
  2 12  1  0
 12 13  2  0
 13 14  1  0
 14 15  2  0
 15 16  1  0
 16 17  2  0
 11  7  1  0
 17 12  1  0
  1 18  1  0
  1 19  1  0
  1 20  1  0
  2 21  1  0
  3 22  1  0
  7 23  1  0
  8 24  1  0
  8 25  1  0
  9 26  1  0
  9 27  1  0
 11 28  1  0
 11 29  1  0
 13 30  1  0
 15 31  1  0
 16 32  1  0
M  END
>  <Energy>  (796) 
440.81539778548739

>  <compound_id>  (796) 
92085

>  <target_id>  (796) 
1

>  <reference_id>  (796) 
54

>  <inspiration_ids>  (796) 
[28, 54]

>  <energy_score>  (796) 
403.3064005367807

>  <distance_score>  (796) 
6.8292037381762425

>  <path>  (796) 
/opt/xchem-fragalysis-2/maxwin/BulkDock/SCRATCH/511025/C92085-P54/C92085-P54.minimised.mol

>  <scratch_subdir>  (796) 
/opt/xchem-fragalysis-2/maxwin/BulkDock/SCRATCH/511025/C92085-P54

>  <fragmenstein_runtime>  (796) 
14.054392576217651

>  <fragmenstein_outcome>  (796) 
too moved

>  <fragmenstein_mode>  (796) 
expansion

>  <fragmenstein_error>  (796) 


$$$$
C92103-P28
     RDKit          3D

 26 27  0  0  0  0  0  0  0  0999 V2000
  -11.1677  -23.7943   14.5870 O   0  0  0  0  0  0  0  0  0  0  0  0
  -10.1643  -23.5782   15.2716 C   0  0  0  0  0  0  0  0  0  0  0  0
   -9.4514  -24.6940   15.3917 O   0  0  0  0  0  0  0  0  0  0  0  0
   -9.5925  -21.9837   15.9281 C   0  0  0  0  0  0  0  0  0  0  0  0
   -9.1616  -21.1275   17.7471 N   0  0  0  0  0  0  0  0  0  0  0  0
   -9.3636  -21.2739   19.6848 C   0  0  0  0  0  0  0  0  0  0  0  0
  -10.3899  -20.9594   20.6059 C   0  0  0  0  0  0  0  0  0  0  0  0
  -10.8303  -21.0609   22.1746 N   0  0  0  0  0  0  0  0  0  0  0  0
  -11.7151  -21.9325   22.3402 C   0  0  0  0  0  0  0  0  0  0  0  0
  -11.4453  -22.6407   21.2724 C   0  0  0  0  0  0  0  0  0  0  0  0
  -10.0885  -22.3444   20.2604 N   0  0  0  0  0  0  0  0  0  0  0  0
   -8.3970  -22.3758   14.8670 C   0  0  0  0  0  0  0  0  0  0  0  0
   -8.8094  -22.6376   13.3940 C   0  0  0  0  0  0  0  0  0  0  0  0
   -9.7679  -21.6657   13.1644 O   0  0  0  0  0  0  0  0  0  0  0  0
  -10.2538  -21.2315   14.4906 C   0  0  0  0  0  0  0  0  0  0  0  0
   -9.9515  -25.3606   14.8762 H   0  0  0  0  0  0  0  0  0  0  0  0
   -9.5803  -21.9857   17.9533 H   0  0  0  0  0  0  0  0  0  0  0  0
  -11.4169  -20.6523   20.2708 H   0  0  0  0  0  0  0  0  0  0  0  0
  -12.3806  -22.0258   23.1620 H   0  0  0  0  0  0  0  0  0  0  0  0
  -11.9866  -23.5145   20.9445 H   0  0  0  0  0  0  0  0  0  0  0  0
   -7.8317  -23.0662   15.4273 H   0  0  0  0  0  0  0  0  0  0  0  0
   -7.6632  -21.6675   14.5326 H   0  0  0  0  0  0  0  0  0  0  0  0
   -7.9682  -22.4603   12.7132 H   0  0  0  0  0  0  0  0  0  0  0  0
   -9.2110  -23.6189   13.1238 H   0  0  0  0  0  0  0  0  0  0  0  0
  -10.4037  -20.1600   14.5175 H   0  0  0  0  0  0  0  0  0  0  0  0
  -11.1703  -21.6429   14.1437 H   0  0  0  0  0  0  0  0  0  0  0  0
  1  2  2  0
  2  3  1  0
  2  4  1  0
  4  5  1  0
  5  6  1  0
  6  7  2  0
  7  8  1  0
  8  9  2  0
  9 10  1  0
 10 11  2  0
  4 12  1  0
 12 13  1  0
 13 14  1  0
 14 15  1  0
 15  4  1  0
 11  6  1  0
  3 16  1  0
  5 17  1  0
  7 18  1  0
  9 19  1  0
 10 20  1  0
 12 21  1  0
 12 22  1  0
 13 23  1  0
 13 24  1  0
 15 25  1  0
 15 26  1  0
M  END
>  <Energy>  (797) 
782.00330206563342

>  <compound_id>  (797) 
92103

>  <target_id>  (797) 
1

>  <reference_id>  (797) 
28

>  <inspiration_ids>  (797) 
[28, 54]

>  <energy_score>  (797) 
667.1501243243646

>  <distance_score>  (797) 
6.427561731324681

>  <path>  (797) 
/opt/xchem-fragalysis-2/maxwin/BulkDock/SCRATCH/511025/C92103-P28/C92103-P28.minimised.mol

>  <scratch_subdir>  (797) 
/opt/xchem-fragalysis-2/maxwin/BulkDock/SCRATCH/511025/C92103-P28

>  <fragmenstein_runtime>  (797) 
7.92473578453064

>  <fragmenstein_outcome>  (797) 
too moved

>  <fragmenstein_mode>  (797) 
expansion

>  <fragmenstein_error>  (797) 


$$$$
C92103-P54
     RDKit          3D

 26 27  0  0  0  0  0  0  0  0999 V2000
  -10.4427  -29.8240   14.8009 O   0  0  0  0  0  0  0  0  0  0  0  0
  -10.1180  -28.7371   14.3378 C   0  0  0  0  0  0  0  0  0  0  0  0
   -8.8351  -28.5090   14.0069 O   0  0  0  0  0  0  0  0  0  0  0  0
  -11.0870  -27.5823   14.0475 C   0  0  0  0  0  0  0  0  0  0  0  0
  -12.4222  -27.8505   14.6742 N   0  0  0  0  0  0  0  0  0  0  0  0
  -12.6679  -27.5031   16.0001 C   0  0  0  0  0  0  0  0  0  0  0  0
  -12.0826  -28.1336   17.1008 C   0  0  0  0  0  0  0  0  0  0  0  0
  -12.4087  -27.8492   18.3801 N   0  0  0  0  0  0  0  0  0  0  0  0
  -13.3362  -26.8814   18.5167 C   0  0  0  0  0  0  0  0  0  0  0  0
  -13.9419  -26.2586   17.4562 C   0  0  0  0  0  0  0  0  0  0  0  0
  -13.6140  -26.5597   16.1895 N   0  0  0  0  0  0  0  0  0  0  0  0
  -10.5269  -26.2031   14.3440 C   0  0  0  0  0  0  0  0  0  0  0  0
  -11.2122  -25.3226   13.3265 C   0  0  0  0  0  0  0  0  0  0  0  0
  -11.2684  -26.1007   12.1265 O   0  0  0  0  0  0  0  0  0  0  0  0
  -11.2779  -27.4894   12.5162 C   0  0  0  0  0  0  0  0  0  0  0  0
   -8.3433  -29.3185   14.2603 H   0  0  0  0  0  0  0  0  0  0  0  0
  -12.6179  -28.8506   14.5911 H   0  0  0  0  0  0  0  0  0  0  0  0
  -11.3480  -28.9205   16.9825 H   0  0  0  0  0  0  0  0  0  0  0  0
  -13.5456  -26.5486   19.5136 H   0  0  0  0  0  0  0  0  0  0  0  0
  -14.6821  -25.4797   17.5814 H   0  0  0  0  0  0  0  0  0  0  0  0
   -9.4543  -26.1778   14.1401 H   0  0  0  0  0  0  0  0  0  0  0  0
  -10.6572  -25.8666   15.3703 H   0  0  0  0  0  0  0  0  0  0  0  0
  -12.2393  -25.0864   13.6202 H   0  0  0  0  0  0  0  0  0  0  0  0
  -10.6715  -24.3912   13.1377 H   0  0  0  0  0  0  0  0  0  0  0  0
  -10.4754  -27.9805   11.9550 H   0  0  0  0  0  0  0  0  0  0  0  0
  -12.2260  -27.9263   12.1832 H   0  0  0  0  0  0  0  0  0  0  0  0
  1  2  2  0
  2  3  1  0
  2  4  1  0
  4  5  1  0
  5  6  1  0
  6  7  2  0
  7  8  1  0
  8  9  2  0
  9 10  1  0
 10 11  2  0
  4 12  1  0
 12 13  1  0
 13 14  1  0
 14 15  1  0
 15  4  1  0
 11  6  1  0
  3 16  1  0
  5 17  1  0
  7 18  1  0
  9 19  1  0
 10 20  1  0
 12 21  1  0
 12 22  1  0
 13 23  1  0
 13 24  1  0
 15 25  1  0
 15 26  1  0
M  END
>  <Energy>  (798) 
84.87642908786583

>  <compound_id>  (798) 
92103

>  <target_id>  (798) 
1

>  <reference_id>  (798) 
54

>  <inspiration_ids>  (798) 
[28, 54]

>  <energy_score>  (798) 
-29.97674865340082

>  <distance_score>  (798) 
9.194700061327307

>  <path>  (798) 
/opt/xchem-fragalysis-2/maxwin/BulkDock/SCRATCH/511025/C92103-P54/C92103-P54.minimised.mol

>  <scratch_subdir>  (798) 
/opt/xchem-fragalysis-2/maxwin/BulkDock/SCRATCH/511025/C92103-P54

>  <fragmenstein_runtime>  (798) 
7.823816776275635

>  <fragmenstein_outcome>  (798) 
too moved

>  <fragmenstein_mode>  (798) 
expansion

>  <fragmenstein_error>  (798) 


$$$$
C92107-P28
     RDKit          3D

 29 30  0  0  0  0  0  0  0  0999 V2000
   -9.3119  -25.1108   14.0999 O   0  0  0  0  0  0  0  0  0  0  0  0
   -9.8109  -24.2792   14.8517 C   0  0  0  0  0  0  0  0  0  0  0  0
  -10.8374  -24.8126   15.5239 O   0  0  0  0  0  0  0  0  0  0  0  0
   -9.4252  -22.6983   14.9767 C   0  0  0  0  0  0  0  0  0  0  0  0
   -9.4592  -21.5397   16.5941 C   0  0  0  0  0  0  0  0  0  0  0  0
   -9.0399  -21.0891   18.5150 N   0  0  0  0  0  0  0  0  0  0  0  0
   -9.7885  -21.4461   20.2255 C   0  0  0  0  0  0  0  0  0  0  0  0
   -9.3456  -21.3944   21.5353 C   0  0  0  0  0  0  0  0  0  0  0  0
  -10.0114  -21.5146   22.8065 N   0  0  0  0  0  0  0  0  0  0  0  0
  -11.2853  -21.7650   22.8200 C   0  0  0  0  0  0  0  0  0  0  0  0
  -11.7658  -22.0250   21.6096 C   0  0  0  0  0  0  0  0  0  0  0  0
  -11.0956  -21.8108   20.4406 N   0  0  0  0  0  0  0  0  0  0  0  0
   -8.5298  -22.3170   13.6100 C   0  0  0  0  0  0  0  0  0  0  0  0
   -9.3899  -21.6631   12.5077 C   0  0  0  0  0  0  0  0  0  0  0  0
  -10.5723  -21.3827   13.2256 O   0  0  0  0  0  0  0  0  0  0  0  0
  -10.6764  -22.5786   13.9397 C   0  0  0  0  0  0  0  0  0  0  0  0
  -10.7993  -25.7473   15.2199 H   0  0  0  0  0  0  0  0  0  0  0  0
   -9.8619  -20.6593   16.1362 H   0  0  0  0  0  0  0  0  0  0  0  0
   -9.8896  -22.4597   16.7937 H   0  0  0  0  0  0  0  0  0  0  0  0
   -9.5074  -21.9537   18.6567 H   0  0  0  0  0  0  0  0  0  0  0  0
   -8.4802  -20.8147   21.7916 H   0  0  0  0  0  0  0  0  0  0  0  0
  -11.8232  -21.8741   23.7432 H   0  0  0  0  0  0  0  0  0  0  0  0
  -12.6875  -22.5401   21.4865 H   0  0  0  0  0  0  0  0  0  0  0  0
   -8.2566  -23.1723   12.9870 H   0  0  0  0  0  0  0  0  0  0  0  0
   -7.6008  -21.8042   13.8107 H   0  0  0  0  0  0  0  0  0  0  0  0
   -9.6506  -22.3591   11.7023 H   0  0  0  0  0  0  0  0  0  0  0  0
   -8.9431  -20.7991   12.0030 H   0  0  0  0  0  0  0  0  0  0  0  0
  -11.6727  -22.9081   14.1778 H   0  0  0  0  0  0  0  0  0  0  0  0
  -10.6216  -23.3579   13.1406 H   0  0  0  0  0  0  0  0  0  0  0  0
  1  2  2  0
  2  3  1  0
  2  4  1  0
  4  5  1  0
  5  6  1  0
  6  7  1  0
  7  8  2  0
  8  9  1  0
  9 10  2  0
 10 11  1  0
 11 12  2  0
  4 13  1  0
 13 14  1  0
 14 15  1  0
 15 16  1  0
 16  4  1  0
 12  7  1  0
  3 17  1  0
  5 18  1  0
  5 19  1  0
  6 20  1  0
  8 21  1  0
 10 22  1  0
 11 23  1  0
 13 24  1  0
 13 25  1  0
 14 26  1  0
 14 27  1  0
 16 28  1  0
 16 29  1  0
M  END
>  <Energy>  (799) 
500.89948761645053

>  <compound_id>  (799) 
92107

>  <target_id>  (799) 
1

>  <reference_id>  (799) 
28

>  <inspiration_ids>  (799) 
[28, 54]

>  <energy_score>  (799) 
459.91028988409823

>  <distance_score>  (799) 
6.013047791759117

>  <path>  (799) 
/opt/xchem-fragalysis-2/maxwin/BulkDock/SCRATCH/511025/C92107-P28/C92107-P28.minimised.mol

>  <scratch_subdir>  (799) 
/opt/xchem-fragalysis-2/maxwin/BulkDock/SCRATCH/511025/C92107-P28

>  <fragmenstein_runtime>  (799) 
10.447269201278687

>  <fragmenstein_outcome>  (799) 
too moved

>  <fragmenstein_mode>  (799) 
expansion

>  <fragmenstein_error>  (799) 


$$$$
C92107-P54
     RDKit          3D

 29 30  0  0  0  0  0  0  0  0999 V2000
   -9.9464  -25.4956   15.2349 O   0  0  0  0  0  0  0  0  0  0  0  0
  -10.4749  -24.6255   14.5616 C   0  0  0  0  0  0  0  0  0  0  0  0
  -11.4933  -25.0654   13.7870 O   0  0  0  0  0  0  0  0  0  0  0  0
  -10.0373  -23.0828   14.4109 C   0  0  0  0  0  0  0  0  0  0  0  0
   -9.7387  -22.4964   16.2303 C   0  0  0  0  0  0  0  0  0  0  0  0
   -9.2993  -21.3898   17.8815 N   0  0  0  0  0  0  0  0  0  0  0  0
   -9.7334  -21.3811   19.7660 C   0  0  0  0  0  0  0  0  0  0  0  0
  -11.1296  -21.7393   20.4309 C   0  0  0  0  0  0  0  0  0  0  0  0
  -11.6883  -21.7975   21.7356 N   0  0  0  0  0  0  0  0  0  0  0  0
  -10.8536  -21.5336   22.6881 C   0  0  0  0  0  0  0  0  0  0  0  0
   -9.5873  -21.3643   22.2612 C   0  0  0  0  0  0  0  0  0  0  0  0
   -9.1164  -21.2671   20.8979 N   0  0  0  0  0  0  0  0  0  0  0  0
   -8.9789  -23.5548   13.3020 C   0  0  0  0  0  0  0  0  0  0  0  0
   -9.5980  -23.3436   11.9449 C   0  0  0  0  0  0  0  0  0  0  0  0
  -10.3666  -22.2174   12.1300 O   0  0  0  0  0  0  0  0  0  0  0  0
  -10.9986  -22.4423   13.3792 C   0  0  0  0  0  0  0  0  0  0  0  0
  -11.4982  -26.0319   13.9554 H   0  0  0  0  0  0  0  0  0  0  0  0
   -8.7988  -22.9243   15.8159 H   0  0  0  0  0  0  0  0  0  0  0  0
   -9.9244  -23.4487   16.5956 H   0  0  0  0  0  0  0  0  0  0  0  0
   -9.5707  -22.2393   18.3008 H   0  0  0  0  0  0  0  0  0  0  0  0
  -11.9847  -22.0686   19.8479 H   0  0  0  0  0  0  0  0  0  0  0  0
  -11.1846  -21.5971   23.7074 H   0  0  0  0  0  0  0  0  0  0  0  0
   -8.7783  -21.4130   22.9727 H   0  0  0  0  0  0  0  0  0  0  0  0
   -8.8420  -24.6361   13.1740 H   0  0  0  0  0  0  0  0  0  0  0  0
   -8.0052  -23.0839   13.3927 H   0  0  0  0  0  0  0  0  0  0  0  0
   -8.9288  -23.1158   11.1595 H   0  0  0  0  0  0  0  0  0  0  0  0
  -10.2187  -24.1870   11.6167 H   0  0  0  0  0  0  0  0  0  0  0  0
  -11.4705  -21.5018   13.6017 H   0  0  0  0  0  0  0  0  0  0  0  0
  -11.7841  -23.1281   13.0960 H   0  0  0  0  0  0  0  0  0  0  0  0
  1  2  2  0
  2  3  1  0
  2  4  1  0
  4  5  1  0
  5  6  1  0
  6  7  1  0
  7  8  2  0
  8  9  1  0
  9 10  2  0
 10 11  1  0
 11 12  2  0
  4 13  1  0
 13 14  1  0
 14 15  1  0
 15 16  1  0
 16  4  1  0
 12  7  1  0
  3 17  1  0
  5 18  1  0
  5 19  1  0
  6 20  1  0
  8 21  1  0
 10 22  1  0
 11 23  1  0
 13 24  1  0
 13 25  1  0
 14 26  1  0
 14 27  1  0
 16 28  1  0
 16 29  1  0
M  END
>  <Energy>  (800) 
517.65162657849021

>  <compound_id>  (800) 
92107

>  <target_id>  (800) 
1

>  <reference_id>  (800) 
54

>  <inspiration_ids>  (800) 
[28, 54]

>  <energy_score>  (800) 
476.6624288461264

>  <distance_score>  (800) 
5.846849268485635

>  <path>  (800) 
/opt/xchem-fragalysis-2/maxwin/BulkDock/SCRATCH/511025/C92107-P54/C92107-P54.minimised.mol

>  <scratch_subdir>  (800) 
/opt/xchem-fragalysis-2/maxwin/BulkDock/SCRATCH/511025/C92107-P54

>  <fragmenstein_runtime>  (800) 
8.595108985900879

>  <fragmenstein_outcome>  (800) 
too moved

>  <fragmenstein_mode>  (800) 
expansion

>  <fragmenstein_error>  (800) 


$$$$
C92111-P28
     RDKit          3D

 34 35  0  0  0  0  0  0  0  0999 V2000
  -16.9414  -23.8509   14.3626 O   0  0  0  0  0  0  0  0  0  0  0  0
  -17.4279  -24.6473   15.1461 C   0  0  0  0  0  0  0  0  0  0  0  0
  -18.6906  -24.4948   15.5923 O   0  0  0  0  0  0  0  0  0  0  0  0
  -16.7748  -25.8801   15.7225 C   0  0  0  0  0  0  0  0  0  0  0  0
  -15.3973  -26.1310   15.1363 C   0  0  0  0  0  0  0  0  0  0  0  0
  -14.5112  -25.3411   16.0614 C   0  0  0  0  0  0  0  0  0  0  0  0
  -15.0793  -25.5051   17.3663 O   0  0  0  0  0  0  0  0  0  0  0  0
  -16.5150  -25.6583   17.2174 C   0  0  0  0  0  0  0  0  0  0  0  0
  -17.0146  -26.8392   18.0840 C   0  0  0  0  0  0  0  0  0  0  0  0
  -17.5296  -26.4871   19.4038 N   0  0  0  0  0  0  0  0  0  0  0  0
  -17.4899  -27.2070   20.6631 C   0  0  0  0  0  0  0  0  0  0  0  0
  -16.9524  -28.2416   20.9577 O   0  0  0  0  0  0  0  0  0  0  0  0
  -18.4114  -26.5031   21.7467 C   0  0  0  0  0  0  0  0  0  0  0  0
  -19.5277  -27.2930   21.9235 F   0  0  0  0  0  0  0  0  0  0  0  0
  -18.9319  -25.3371   21.2456 F   0  0  0  0  0  0  0  0  0  0  0  0
  -17.6905  -26.3166   23.0897 C   0  0  0  0  0  0  0  0  0  0  0  0
  -17.4312  -27.4459   23.8636 C   0  0  0  0  0  0  0  0  0  0  0  0
  -16.9146  -27.3965   25.1159 N   0  0  0  0  0  0  0  0  0  0  0  0
  -16.7125  -26.1573   25.6009 C   0  0  0  0  0  0  0  0  0  0  0  0
  -16.9412  -25.0162   24.8534 C   0  0  0  0  0  0  0  0  0  0  0  0
  -17.4168  -25.0682   23.5833 N   0  0  0  0  0  0  0  0  0  0  0  0
  -19.0053  -23.6624   15.1768 H   0  0  0  0  0  0  0  0  0  0  0  0
  -17.4417  -26.7205   15.4996 H   0  0  0  0  0  0  0  0  0  0  0  0
  -15.2795  -25.8400   14.0888 H   0  0  0  0  0  0  0  0  0  0  0  0
  -15.1595  -27.1979   15.2256 H   0  0  0  0  0  0  0  0  0  0  0  0
  -14.5368  -24.2773   15.8112 H   0  0  0  0  0  0  0  0  0  0  0  0
  -13.4785  -25.6979   16.0620 H   0  0  0  0  0  0  0  0  0  0  0  0
  -16.9712  -24.7276   17.5755 H   0  0  0  0  0  0  0  0  0  0  0  0
  -17.8601  -27.3359   17.5963 H   0  0  0  0  0  0  0  0  0  0  0  0
  -16.2243  -27.5837   18.2284 H   0  0  0  0  0  0  0  0  0  0  0  0
  -18.1548  -25.6810   19.4996 H   0  0  0  0  0  0  0  0  0  0  0  0
  -17.6619  -28.4457   23.5031 H   0  0  0  0  0  0  0  0  0  0  0  0
  -16.3960  -26.1244   26.6307 H   0  0  0  0  0  0  0  0  0  0  0  0
  -16.7758  -24.0230   25.2575 H   0  0  0  0  0  0  0  0  0  0  0  0
  1  2  2  0
  2  3  1  0
  2  4  1  0
  4  5  1  0
  5  6  1  0
  6  7  1  0
  7  8  1  0
  8  9  1  0
  9 10  1  0
 10 11  1  0
 11 12  2  0
 11 13  1  0
 13 14  1  0
 13 15  1  0
 13 16  1  0
 16 17  2  0
 17 18  1  0
 18 19  2  0
 19 20  1  0
 20 21  2  0
  8  4  1  0
 21 16  1  0
  3 22  1  0
  4 23  1  0
  5 24  1  0
  5 25  1  0
  6 26  1  0
  6 27  1  0
  8 28  1  0
  9 29  1  0
  9 30  1  0
 10 31  1  0
 17 32  1  0
 19 33  1  0
 20 34  1  0
M  END
>  <Energy>  (801) 
132.49029861185238

>  <compound_id>  (801) 
92111

>  <target_id>  (801) 
1

>  <reference_id>  (801) 
28

>  <inspiration_ids>  (801) 
[28, 54]

>  <energy_score>  (801) 
-27.787693609304256

>  <distance_score>  (801) 
7.898457715385643

>  <path>  (801) 
/opt/xchem-fragalysis-2/maxwin/BulkDock/SCRATCH/511025/C92111-P28/C92111-P28.minimised.mol

>  <scratch_subdir>  (801) 
/opt/xchem-fragalysis-2/maxwin/BulkDock/SCRATCH/511025/C92111-P28

>  <fragmenstein_runtime>  (801) 
19.28282594680786

>  <fragmenstein_outcome>  (801) 
too moved

>  <fragmenstein_mode>  (801) 
expansion

>  <fragmenstein_error>  (801) 


$$$$
C92111-P54
     RDKit          3D

 34 35  0  0  0  0  0  0  0  0999 V2000
  -16.4558  -27.6120   15.5446 O   0  0  0  0  0  0  0  0  0  0  0  0
  -15.3066  -27.4028   15.1822 C   0  0  0  0  0  0  0  0  0  0  0  0
  -15.0341  -26.7349   14.0429 O   0  0  0  0  0  0  0  0  0  0  0  0
  -14.1147  -27.7896   16.0218 C   0  0  0  0  0  0  0  0  0  0  0  0
  -12.9082  -28.3118   15.2452 C   0  0  0  0  0  0  0  0  0  0  0  0
  -11.8196  -27.2928   15.4983 C   0  0  0  0  0  0  0  0  0  0  0  0
  -12.1744  -26.6915   16.7432 O   0  0  0  0  0  0  0  0  0  0  0  0
  -13.6060  -26.5660   16.7700 C   0  0  0  0  0  0  0  0  0  0  0  0
  -14.1298  -26.4089   18.2083 C   0  0  0  0  0  0  0  0  0  0  0  0
  -13.5862  -25.2225   18.8992 N   0  0  0  0  0  0  0  0  0  0  0  0
  -13.3962  -24.9409   20.3545 C   0  0  0  0  0  0  0  0  0  0  0  0
  -13.7133  -25.5769   21.3129 O   0  0  0  0  0  0  0  0  0  0  0  0
  -12.4985  -23.5267   20.6903 C   0  0  0  0  0  0  0  0  0  0  0  0
  -11.3868  -24.2912   20.8020 F   0  0  0  0  0  0  0  0  0  0  0  0
  -12.6474  -22.8188   19.5591 F   0  0  0  0  0  0  0  0  0  0  0  0
  -12.3839  -22.4663   21.9183 C   0  0  0  0  0  0  0  0  0  0  0  0
  -13.0667  -22.6059   23.1587 C   0  0  0  0  0  0  0  0  0  0  0  0
  -12.8873  -21.8647   24.2399 N   0  0  0  0  0  0  0  0  0  0  0  0
  -11.9340  -20.9589   24.0809 C   0  0  0  0  0  0  0  0  0  0  0  0
  -11.1628  -20.8665   22.9515 C   0  0  0  0  0  0  0  0  0  0  0  0
  -11.3871  -21.5652   21.8396 N   0  0  0  0  0  0  0  0  0  0  0  0
  -14.0934  -26.5666   13.8498 H   0  0  0  0  0  0  0  0  0  0  0  0
  -14.4471  -28.5757   16.7117 H   0  0  0  0  0  0  0  0  0  0  0  0
  -13.0766  -28.4917   14.1796 H   0  0  0  0  0  0  0  0  0  0  0  0
  -12.6011  -29.2706   15.6820 H   0  0  0  0  0  0  0  0  0  0  0  0
  -11.8057  -26.5200   14.7223 H   0  0  0  0  0  0  0  0  0  0  0  0
  -10.8249  -27.7408   15.5700 H   0  0  0  0  0  0  0  0  0  0  0  0
  -13.8800  -25.6572   16.2222 H   0  0  0  0  0  0  0  0  0  0  0  0
  -13.8560  -27.2766   18.8148 H   0  0  0  0  0  0  0  0  0  0  0  0
  -15.2201  -26.3302   18.1748 H   0  0  0  0  0  0  0  0  0  0  0  0
  -13.2706  -24.4281   18.3631 H   0  0  0  0  0  0  0  0  0  0  0  0
  -13.7456  -23.4055   23.3618 H   0  0  0  0  0  0  0  0  0  0  0  0
  -11.7988  -20.2518   24.8779 H   0  0  0  0  0  0  0  0  0  0  0  0
  -10.3491  -20.1821   22.9181 H   0  0  0  0  0  0  0  0  0  0  0  0
  1  2  2  0
  2  3  1  0
  2  4  1  0
  4  5  1  0
  5  6  1  0
  6  7  1  0
  7  8  1  0
  8  9  1  0
  9 10  1  0
 10 11  1  0
 11 12  2  0
 11 13  1  0
 13 14  1  0
 13 15  1  0
 13 16  1  0
 16 17  2  0
 17 18  1  0
 18 19  2  0
 19 20  1  0
 20 21  2  0
  8  4  1  0
 21 16  1  0
  3 22  1  0
  4 23  1  0
  5 24  1  0
  5 25  1  0
  6 26  1  0
  6 27  1  0
  8 28  1  0
  9 29  1  0
  9 30  1  0
 10 31  1  0
 17 32  1  0
 19 33  1  0
 20 34  1  0
M  END
>  <Energy>  (802) 
199.47047361172861

>  <compound_id>  (802) 
92111

>  <target_id>  (802) 
1

>  <reference_id>  (802) 
54

>  <inspiration_ids>  (802) 
[28, 54]

>  <energy_score>  (802) 
39.19248139057311

>  <distance_score>  (802) 
6.245846917068077

>  <path>  (802) 
/opt/xchem-fragalysis-2/maxwin/BulkDock/SCRATCH/511025/C92111-P54/C92111-P54.minimised.mol

>  <scratch_subdir>  (802) 
/opt/xchem-fragalysis-2/maxwin/BulkDock/SCRATCH/511025/C92111-P54

>  <fragmenstein_runtime>  (802) 
16.50721001625061

>  <fragmenstein_outcome>  (802) 
too moved

>  <fragmenstein_mode>  (802) 
expansion

>  <fragmenstein_error>  (802) 


$$$$
C92114-P28
     RDKit          3D

 39 40  0  0  0  0  0  0  0  0999 V2000
  -12.1655  -22.2226   20.3335 N   0  0  0  0  0  0  0  0  0  0  0  0
  -12.5644  -23.5653   20.7240 C   0  0  0  0  0  0  0  0  0  0  0  0
  -12.7593  -22.6598   22.4003 C   0  0  0  0  0  0  0  0  0  0  0  0
  -13.2629  -22.8703   23.8980 C   0  0  0  0  0  0  0  0  0  0  0  0
  -13.9056  -23.9818   24.4814 C   0  0  0  0  0  0  0  0  0  0  0  0
  -13.6088  -24.4838   25.7218 N   0  0  0  0  0  0  0  0  0  0  0  0
  -12.7960  -23.7164   26.4640 C   0  0  0  0  0  0  0  0  0  0  0  0
  -12.3799  -22.5006   26.0255 C   0  0  0  0  0  0  0  0  0  0  0  0
  -12.5512  -22.0848   24.7395 N   0  0  0  0  0  0  0  0  0  0  0  0
  -13.4187  -24.6892   19.2775 C   0  0  0  0  0  0  0  0  0  0  0  0
  -13.6735  -24.0954   18.2580 O   0  0  0  0  0  0  0  0  0  0  0  0
  -13.6136  -26.0271   19.6119 N   0  0  0  0  0  0  0  0  0  0  0  0
  -14.0945  -27.1633   18.8184 C   0  0  0  0  0  0  0  0  0  0  0  0
  -13.6411  -27.3278   17.3370 C   0  0  0  0  0  0  0  0  0  0  0  0
  -14.0578  -28.7433   16.9494 C   0  0  0  0  0  0  0  0  0  0  0  0
  -13.3230  -29.6764   16.6681 O   0  0  0  0  0  0  0  0  0  0  0  0
  -15.3916  -28.9396   16.9891 O   0  0  0  0  0  0  0  0  0  0  0  0
  -12.1451  -27.1655   17.0861 C   0  0  0  0  0  0  0  0  0  0  0  0
  -12.0607  -26.7126   15.6448 C   0  0  0  0  0  0  0  0  0  0  0  0
  -13.2394  -25.9479   15.4009 O   0  0  0  0  0  0  0  0  0  0  0  0
  -14.2648  -26.3682   16.3200 C   0  0  0  0  0  0  0  0  0  0  0  0
  -12.6579  -21.7036   19.6084 H   0  0  0  0  0  0  0  0  0  0  0  0
  -11.3276  -21.7902   20.7128 H   0  0  0  0  0  0  0  0  0  0  0  0
  -11.6898  -24.2016   20.8460 H   0  0  0  0  0  0  0  0  0  0  0  0
  -11.6722  -22.5936   22.6290 H   0  0  0  0  0  0  0  0  0  0  0  0
  -12.7992  -21.5832   22.3103 H   0  0  0  0  0  0  0  0  0  0  0  0
  -14.4562  -24.7412   23.9623 H   0  0  0  0  0  0  0  0  0  0  0  0
  -12.5479  -24.0424   27.4569 H   0  0  0  0  0  0  0  0  0  0  0  0
  -11.8805  -21.8220   26.7065 H   0  0  0  0  0  0  0  0  0  0  0  0
  -13.2130  -26.1917   20.5028 H   0  0  0  0  0  0  0  0  0  0  0  0
  -13.7766  -28.0570   19.3577 H   0  0  0  0  0  0  0  0  0  0  0  0
  -15.1885  -27.1229   18.8734 H   0  0  0  0  0  0  0  0  0  0  0  0
  -15.5165  -29.8594   16.6685 H   0  0  0  0  0  0  0  0  0  0  0  0
  -11.7299  -26.3969   17.7294 H   0  0  0  0  0  0  0  0  0  0  0  0
  -11.5499  -28.0668   17.2523 H   0  0  0  0  0  0  0  0  0  0  0  0
  -12.0590  -27.5661   14.9584 H   0  0  0  0  0  0  0  0  0  0  0  0
  -11.1744  -26.1041   15.4454 H   0  0  0  0  0  0  0  0  0  0  0  0
  -14.7104  -25.4797   16.7660 H   0  0  0  0  0  0  0  0  0  0  0  0
  -15.0544  -26.8282   15.7158 H   0  0  0  0  0  0  0  0  0  0  0  0
  1  2  1  0
  2  3  1  0
  3  4  1  0
  4  5  2  0
  5  6  1  0
  6  7  2  0
  7  8  1  0
  8  9  2  0
  2 10  1  0
 10 11  2  0
 10 12  1  0
 12 13  1  0
 13 14  1  0
 14 15  1  0
 15 16  2  0
 15 17  1  0
 14 18  1  0
 18 19  1  0
 19 20  1  0
 20 21  1  0
  9  4  1  0
 21 14  1  0
  1 22  1  0
  1 23  1  0
  2 24  1  0
  3 25  1  0
  3 26  1  0
  5 27  1  0
  7 28  1  0
  8 29  1  0
 12 30  1  0
 13 31  1  0
 13 32  1  0
 17 33  1  0
 18 34  1  0
 18 35  1  0
 19 36  1  0
 19 37  1  0
 21 38  1  0
 21 39  1  0
M  END
>  <Energy>  (803) 
254.31121316767332

>  <compound_id>  (803) 
92114

>  <target_id>  (803) 
1

>  <reference_id>  (803) 
28

>  <inspiration_ids>  (803) 
[28, 54]

>  <energy_score>  (803) 
143.87261807941752

>  <distance_score>  (803) 
5.86917897662609

>  <path>  (803) 
/opt/xchem-fragalysis-2/maxwin/BulkDock/SCRATCH/511025/C92114-P28/C92114-P28.minimised.mol

>  <scratch_subdir>  (803) 
/opt/xchem-fragalysis-2/maxwin/BulkDock/SCRATCH/511025/C92114-P28

>  <fragmenstein_runtime>  (803) 
34.95515155792236

>  <fragmenstein_outcome>  (803) 
too moved

>  <fragmenstein_mode>  (803) 
expansion

>  <fragmenstein_error>  (803) 


$$$$
C92114-P54
     RDKit          3D

 39 40  0  0  0  0  0  0  0  0999 V2000
  -14.2744  -26.9802   19.2622 N   0  0  0  0  0  0  0  0  0  0  0  0
  -13.4566  -25.7266   19.1301 C   0  0  0  0  0  0  0  0  0  0  0  0
  -12.7801  -24.3680   20.2872 C   0  0  0  0  0  0  0  0  0  0  0  0
  -12.5283  -22.8413   21.3154 C   0  0  0  0  0  0  0  0  0  0  0  0
  -11.4181  -21.9954   21.2347 C   0  0  0  0  0  0  0  0  0  0  0  0
  -11.0410  -21.0989   22.2114 N   0  0  0  0  0  0  0  0  0  0  0  0
  -11.7160  -21.1021   23.3704 C   0  0  0  0  0  0  0  0  0  0  0  0
  -12.7294  -21.9709   23.6062 C   0  0  0  0  0  0  0  0  0  0  0  0
  -13.1581  -22.7928   22.6167 N   0  0  0  0  0  0  0  0  0  0  0  0
  -13.5562  -25.6678   17.5186 C   0  0  0  0  0  0  0  0  0  0  0  0
  -14.3574  -24.9700   16.9680 O   0  0  0  0  0  0  0  0  0  0  0  0
  -12.5937  -26.6599   16.9664 N   0  0  0  0  0  0  0  0  0  0  0  0
  -12.2684  -27.0099   15.5935 C   0  0  0  0  0  0  0  0  0  0  0  0
  -13.2370  -26.9723   14.4205 C   0  0  0  0  0  0  0  0  0  0  0  0
  -12.5636  -27.8248   13.3346 C   0  0  0  0  0  0  0  0  0  0  0  0
  -12.8950  -28.9767   13.0820 O   0  0  0  0  0  0  0  0  0  0  0  0
  -11.4963  -27.2706   12.7192 O   0  0  0  0  0  0  0  0  0  0  0  0
  -14.6302  -27.5110   14.6838 C   0  0  0  0  0  0  0  0  0  0  0  0
  -15.4184  -26.9656   13.5010 C   0  0  0  0  0  0  0  0  0  0  0  0
  -14.7052  -25.8253   13.0038 O   0  0  0  0  0  0  0  0  0  0  0  0
  -13.5820  -25.6089   13.8646 C   0  0  0  0  0  0  0  0  0  0  0  0
  -13.8643  -27.7311   18.7003 H   0  0  0  0  0  0  0  0  0  0  0  0
  -15.1786  -26.8396   18.7930 H   0  0  0  0  0  0  0  0  0  0  0  0
  -12.5593  -26.3037   19.1986 H   0  0  0  0  0  0  0  0  0  0  0  0
  -11.8082  -24.7289   20.5295 H   0  0  0  0  0  0  0  0  0  0  0  0
  -12.8759  -23.6678   19.4500 H   0  0  0  0  0  0  0  0  0  0  0  0
  -10.6753  -22.0182   20.4627 H   0  0  0  0  0  0  0  0  0  0  0  0
  -11.4846  -20.3154   24.0696 H   0  0  0  0  0  0  0  0  0  0  0  0
  -13.2776  -21.9983   24.5375 H   0  0  0  0  0  0  0  0  0  0  0  0
  -12.1229  -27.1304   17.7312 H   0  0  0  0  0  0  0  0  0  0  0  0
  -11.3749  -26.4214   15.3479 H   0  0  0  0  0  0  0  0  0  0  0  0
  -11.8928  -28.0384   15.6931 H   0  0  0  0  0  0  0  0  0  0  0  0
  -11.2452  -26.3575   12.9534 H   0  0  0  0  0  0  0  0  0  0  0  0
  -14.7057  -28.6005   14.7551 H   0  0  0  0  0  0  0  0  0  0  0  0
  -15.0510  -27.1035   15.6087 H   0  0  0  0  0  0  0  0  0  0  0  0
  -16.4310  -26.6658   13.7871 H   0  0  0  0  0  0  0  0  0  0  0  0
  -15.4912  -27.6978   12.6905 H   0  0  0  0  0  0  0  0  0  0  0  0
  -12.7864  -25.1230   13.2983 H   0  0  0  0  0  0  0  0  0  0  0  0
  -13.9222  -24.9171   14.6327 H   0  0  0  0  0  0  0  0  0  0  0  0
  1  2  1  0
  2  3  1  0
  3  4  1  0
  4  5  2  0
  5  6  1  0
  6  7  2  0
  7  8  1  0
  8  9  2  0
  2 10  1  0
 10 11  2  0
 10 12  1  0
 12 13  1  0
 13 14  1  0
 14 15  1  0
 15 16  2  0
 15 17  1  0
 14 18  1  0
 18 19  1  0
 19 20  1  0
 20 21  1  0
  9  4  1  0
 21 14  1  0
  1 22  1  0
  1 23  1  0
  2 24  1  0
  3 25  1  0
  3 26  1  0
  5 27  1  0
  7 28  1  0
  8 29  1  0
 12 30  1  0
 13 31  1  0
 13 32  1  0
 17 33  1  0
 18 34  1  0
 18 35  1  0
 19 36  1  0
 19 37  1  0
 21 38  1  0
 21 39  1  0
M  END
>  <Energy>  (804) 
261.02343767045699

>  <compound_id>  (804) 
92114

>  <target_id>  (804) 
1

>  <reference_id>  (804) 
54

>  <inspiration_ids>  (804) 
[28, 54]

>  <energy_score>  (804) 
150.58484258219875

>  <distance_score>  (804) 
6.195436185263865

>  <path>  (804) 
/opt/xchem-fragalysis-2/maxwin/BulkDock/SCRATCH/511025/C92114-P54/C92114-P54.minimised.mol

>  <scratch_subdir>  (804) 
/opt/xchem-fragalysis-2/maxwin/BulkDock/SCRATCH/511025/C92114-P54

>  <fragmenstein_runtime>  (804) 
34.653895139694214

>  <fragmenstein_outcome>  (804) 
too moved

>  <fragmenstein_mode>  (804) 
expansion

>  <fragmenstein_error>  (804) 


$$$$
C92115-P28
     RDKit          3D

 42 43  0  0  0  0  0  0  0  0999 V2000
  -14.1281  -25.2692   25.2937 C   0  0  0  0  0  0  0  0  0  0  0  0
  -14.9042  -26.6116   25.1712 C   0  0  0  0  0  0  0  0  0  0  0  0
  -14.0150  -27.8376   25.2752 C   0  0  0  0  0  0  0  0  0  0  0  0
  -15.8109  -26.8958   23.7623 C   0  0  0  0  0  0  0  0  0  0  0  0
  -15.1309  -27.0373   22.3994 N   0  0  0  0  0  0  0  0  0  0  0  0
  -15.7525  -27.4605   20.9498 C   0  0  0  0  0  0  0  0  0  0  0  0
  -16.8245  -27.8167   20.6695 O   0  0  0  0  0  0  0  0  0  0  0  0
  -14.4722  -27.1372   19.9963 N   0  0  0  0  0  0  0  0  0  0  0  0
  -14.3553  -27.1144   18.4519 C   0  0  0  0  0  0  0  0  0  0  0  0
  -15.0709  -28.3676   17.9422 C   0  0  0  0  0  0  0  0  0  0  0  0
  -14.8541  -29.5093   18.3296 O   0  0  0  0  0  0  0  0  0  0  0  0
  -15.9931  -28.1525   16.9884 O   0  0  0  0  0  0  0  0  0  0  0  0
  -12.8818  -27.1755   17.9101 C   0  0  0  0  0  0  0  0  0  0  0  0
  -12.8941  -26.4774   16.5582 C   0  0  0  0  0  0  0  0  0  0  0  0
  -13.8502  -25.4329   16.6931 O   0  0  0  0  0  0  0  0  0  0  0  0
  -14.7533  -25.7707   17.7806 C   0  0  0  0  0  0  0  0  0  0  0  0
  -15.8218  -26.5981   26.3593 C   0  0  0  0  0  0  0  0  0  0  0  0
  -15.3728  -27.0491   27.5760 C   0  0  0  0  0  0  0  0  0  0  0  0
  -15.9411  -26.6854   28.7383 N   0  0  0  0  0  0  0  0  0  0  0  0
  -17.0761  -25.9671   28.6481 C   0  0  0  0  0  0  0  0  0  0  0  0
  -17.5800  -25.5732   27.4290 C   0  0  0  0  0  0  0  0  0  0  0  0
  -16.9436  -25.8591   26.2719 N   0  0  0  0  0  0  0  0  0  0  0  0
  -13.6928  -25.0806   24.3332 H   0  0  0  0  0  0  0  0  0  0  0  0
  -14.7958  -24.4109   25.3968 H   0  0  0  0  0  0  0  0  0  0  0  0
  -13.3572  -25.2695   26.0687 H   0  0  0  0  0  0  0  0  0  0  0  0
  -13.1029  -27.6757   25.8581 H   0  0  0  0  0  0  0  0  0  0  0  0
  -13.7600  -28.0823   24.2672 H   0  0  0  0  0  0  0  0  0  0  0  0
  -14.5315  -28.7269   25.6577 H   0  0  0  0  0  0  0  0  0  0  0  0
  -16.3969  -27.8133   23.8974 H   0  0  0  0  0  0  0  0  0  0  0  0
  -16.5317  -26.0786   23.6460 H   0  0  0  0  0  0  0  0  0  0  0  0
  -14.2042  -26.7037   22.2833 H   0  0  0  0  0  0  0  0  0  0  0  0
  -13.7250  -26.7748   20.5460 H   0  0  0  0  0  0  0  0  0  0  0  0
  -16.3955  -29.0341   16.8371 H   0  0  0  0  0  0  0  0  0  0  0  0
  -12.4824  -28.1922   17.8409 H   0  0  0  0  0  0  0  0  0  0  0  0
  -12.2300  -26.6136   18.5773 H   0  0  0  0  0  0  0  0  0  0  0  0
  -13.2332  -27.1548   15.7678 H   0  0  0  0  0  0  0  0  0  0  0  0
  -11.9179  -26.0716   16.2811 H   0  0  0  0  0  0  0  0  0  0  0  0
  -14.6756  -24.9535   18.5060 H   0  0  0  0  0  0  0  0  0  0  0  0
  -15.7767  -25.7618   17.3950 H   0  0  0  0  0  0  0  0  0  0  0  0
  -14.4466  -27.5836   27.6610 H   0  0  0  0  0  0  0  0  0  0  0  0
  -17.5668  -25.7070   29.5785 H   0  0  0  0  0  0  0  0  0  0  0  0
  -18.4871  -24.9866   27.3425 H   0  0  0  0  0  0  0  0  0  0  0  0
  1  2  1  0
  2  3  1  0
  2  4  1  0
  4  5  1  0
  5  6  1  0
  6  7  2  0
  6  8  1  0
  8  9  1  0
  9 10  1  0
 10 11  2  0
 10 12  1  0
  9 13  1  0
 13 14  1  0
 14 15  1  0
 15 16  1  0
  2 17  1  0
 17 18  2  0
 18 19  1  0
 19 20  2  0
 20 21  1  0
 21 22  2  0
 16  9  1  0
 22 17  1  0
  1 23  1  0
  1 24  1  0
  1 25  1  0
  3 26  1  0
  3 27  1  0
  3 28  1  0
  4 29  1  0
  4 30  1  0
  5 31  1  0
  8 32  1  0
 12 33  1  0
 13 34  1  0
 13 35  1  0
 14 36  1  0
 14 37  1  0
 16 38  1  0
 16 39  1  0
 18 40  1  0
 20 41  1  0
 21 42  1  0
M  END
>  <Energy>  (805) 
80.904715222075211

>  <compound_id>  (805) 
92115

>  <target_id>  (805) 
1

>  <reference_id>  (805) 
28

>  <inspiration_ids>  (805) 
[28, 54]

>  <energy_score>  (805) 
24.490399191340657

>  <distance_score>  (805) 
8.856454221665784

>  <path>  (805) 
/opt/xchem-fragalysis-2/maxwin/BulkDock/SCRATCH/511025/C92115-P28/C92115-P28.minimised.mol

>  <scratch_subdir>  (805) 
/opt/xchem-fragalysis-2/maxwin/BulkDock/SCRATCH/511025/C92115-P28

>  <fragmenstein_runtime>  (805) 
77.56886982917786

>  <fragmenstein_outcome>  (805) 
too moved

>  <fragmenstein_mode>  (805) 
expansion

>  <fragmenstein_error>  (805) 


$$$$
C92115-P54
     RDKit          3D

 42 43  0  0  0  0  0  0  0  0999 V2000
  -11.6392  -20.3977   24.0267 C   0  0  0  0  0  0  0  0  0  0  0  0
  -11.2717  -21.8205   23.5257 C   0  0  0  0  0  0  0  0  0  0  0  0
  -10.6646  -22.6586   24.7520 C   0  0  0  0  0  0  0  0  0  0  0  0
   -9.8388  -21.4042   22.4732 C   0  0  0  0  0  0  0  0  0  0  0  0
   -9.6366  -21.3872   20.9911 N   0  0  0  0  0  0  0  0  0  0  0  0
  -10.4048  -21.8432   19.9790 C   0  0  0  0  0  0  0  0  0  0  0  0
  -11.4766  -22.3115   20.0405 O   0  0  0  0  0  0  0  0  0  0  0  0
   -9.4059  -21.7656   18.2300 N   0  0  0  0  0  0  0  0  0  0  0  0
   -9.8443  -22.5337   16.3331 C   0  0  0  0  0  0  0  0  0  0  0  0
  -10.4505  -21.7071   14.8992 C   0  0  0  0  0  0  0  0  0  0  0  0
  -10.8131  -22.1805   13.8057 O   0  0  0  0  0  0  0  0  0  0  0  0
  -10.6697  -20.2042   15.0281 O   0  0  0  0  0  0  0  0  0  0  0  0
  -10.0864  -24.3682   15.6413 C   0  0  0  0  0  0  0  0  0  0  0  0
  -10.2812  -24.5916   14.1740 C   0  0  0  0  0  0  0  0  0  0  0  0
   -9.2299  -23.8121   13.7561 O   0  0  0  0  0  0  0  0  0  0  0  0
   -8.6829  -23.1728   14.9752 C   0  0  0  0  0  0  0  0  0  0  0  0
  -12.8234  -22.1577   23.4587 C   0  0  0  0  0  0  0  0  0  0  0  0
  -13.4655  -22.7153   24.6036 C   0  0  0  0  0  0  0  0  0  0  0  0
  -14.7870  -22.6182   24.9128 N   0  0  0  0  0  0  0  0  0  0  0  0
  -15.4718  -21.7643   24.1364 C   0  0  0  0  0  0  0  0  0  0  0  0
  -14.9080  -21.2236   22.9993 C   0  0  0  0  0  0  0  0  0  0  0  0
  -13.6230  -21.4762   22.5986 N   0  0  0  0  0  0  0  0  0  0  0  0
  -11.8133  -20.3859   25.0884 H   0  0  0  0  0  0  0  0  0  0  0  0
  -10.8431  -19.7092   23.8489 H   0  0  0  0  0  0  0  0  0  0  0  0
  -12.4965  -19.9102   23.5645 H   0  0  0  0  0  0  0  0  0  0  0  0
   -9.6259  -22.9064   24.5610 H   0  0  0  0  0  0  0  0  0  0  0  0
  -11.0295  -23.6249   25.0446 H   0  0  0  0  0  0  0  0  0  0  0  0
  -10.8385  -22.2025   25.7337 H   0  0  0  0  0  0  0  0  0  0  0  0
   -9.7839  -20.3647   22.6142 H   0  0  0  0  0  0  0  0  0  0  0  0
   -8.9559  -21.8360   22.9411 H   0  0  0  0  0  0  0  0  0  0  0  0
   -8.8352  -20.9797   20.6040 H   0  0  0  0  0  0  0  0  0  0  0  0
   -8.5836  -21.2777   18.3452 H   0  0  0  0  0  0  0  0  0  0  0  0
  -11.1552  -19.8730   14.2398 H   0  0  0  0  0  0  0  0  0  0  0  0
  -10.7459  -25.1359   16.0677 H   0  0  0  0  0  0  0  0  0  0  0  0
   -9.1811  -24.9788   15.7543 H   0  0  0  0  0  0  0  0  0  0  0  0
  -10.0919  -25.6351   13.8948 H   0  0  0  0  0  0  0  0  0  0  0  0
  -11.2478  -24.3340   13.7406 H   0  0  0  0  0  0  0  0  0  0  0  0
   -8.0031  -22.5847   14.3881 H   0  0  0  0  0  0  0  0  0  0  0  0
   -7.9740  -23.7256   15.5382 H   0  0  0  0  0  0  0  0  0  0  0  0
  -12.9338  -23.1899   25.4168 H   0  0  0  0  0  0  0  0  0  0  0  0
  -16.4938  -21.5506   24.4262 H   0  0  0  0  0  0  0  0  0  0  0  0
  -15.4830  -20.5729   22.3482 H   0  0  0  0  0  0  0  0  0  0  0  0
  1  2  1  0
  2  3  1  0
  2  4  1  0
  4  5  1  0
  5  6  1  0
  6  7  2  0
  6  8  1  0
  8  9  1  0
  9 10  1  0
 10 11  2  0
 10 12  1  0
  9 13  1  0
 13 14  1  0
 14 15  1  0
 15 16  1  0
  2 17  1  0
 17 18  2  0
 18 19  1  0
 19 20  2  0
 20 21  1  0
 21 22  2  0
 16  9  1  0
 22 17  1  0
  1 23  1  0
  1 24  1  0
  1 25  1  0
  3 26  1  0
  3 27  1  0
  3 28  1  0
  4 29  1  0
  4 30  1  0
  5 31  1  0
  8 32  1  0
 12 33  1  0
 13 34  1  0
 13 35  1  0
 14 36  1  0
 14 37  1  0
 16 38  1  0
 16 39  1  0
 18 40  1  0
 20 41  1  0
 21 42  1  0
M  END
>  <Energy>  (806) 
618.50357433768318

>  <compound_id>  (806) 
92115

>  <target_id>  (806) 
1

>  <reference_id>  (806) 
54

>  <inspiration_ids>  (806) 
[28, 54]

>  <energy_score>  (806) 
552.1020178769305

>  <distance_score>  (806) 
7.577746160724564

>  <path>  (806) 
/opt/xchem-fragalysis-2/maxwin/BulkDock/SCRATCH/511025/C92115-P54/C92115-P54.minimised.mol

>  <scratch_subdir>  (806) 
/opt/xchem-fragalysis-2/maxwin/BulkDock/SCRATCH/511025/C92115-P54

>  <fragmenstein_runtime>  (806) 
49.2332329750061

>  <fragmenstein_outcome>  (806) 
too moved

>  <fragmenstein_mode>  (806) 
expansion

>  <fragmenstein_error>  (806) 


$$$$
C92075-P28
     RDKit          3D

 44 45  0  0  0  0  0  0  0  0999 V2000
  -11.3548  -23.0740   27.8246 C   0  0  0  0  0  0  0  0  0  0  0  0
  -11.6165  -24.0023   26.6570 C   0  0  0  0  0  0  0  0  0  0  0  0
  -11.1941  -25.5578   26.7708 C   0  0  0  0  0  0  0  0  0  0  0  0
  -10.8343  -25.9208   25.3911 C   0  0  0  0  0  0  0  0  0  0  0  0
  -10.6768  -27.2406   24.4979 N   0  0  0  0  0  0  0  0  0  0  0  0
  -10.4127  -27.4443   22.6364 C   0  0  0  0  0  0  0  0  0  0  0  0
  -10.2273  -26.5900   21.7714 O   0  0  0  0  0  0  0  0  0  0  0  0
  -10.4770  -29.3949   21.7333 C   0  0  0  0  0  0  0  0  0  0  0  0
  -11.5850  -30.3112   20.3270 C   0  0  0  0  0  0  0  0  0  0  0  0
  -11.5001  -31.7906   20.3518 C   0  0  0  0  0  0  0  0  0  0  0  0
  -11.3152  -31.8584   21.7505 O   0  0  0  0  0  0  0  0  0  0  0  0
  -10.2295  -30.9443   21.9505 C   0  0  0  0  0  0  0  0  0  0  0  0
  -12.9305  -23.7776   26.0641 N   0  0  0  0  0  0  0  0  0  0  0  0
  -13.3446  -22.9350   24.9369 C   0  0  0  0  0  0  0  0  0  0  0  0
  -12.6950  -22.2812   24.1706 O   0  0  0  0  0  0  0  0  0  0  0  0
  -14.8487  -23.0919   24.7857 C   0  0  0  0  0  0  0  0  0  0  0  0
  -15.7078  -22.0692   24.1238 C   0  0  0  0  0  0  0  0  0  0  0  0
  -15.3102  -20.7681   23.8081 C   0  0  0  0  0  0  0  0  0  0  0  0
  -16.1706  -19.7978   23.4286 N   0  0  0  0  0  0  0  0  0  0  0  0
  -17.4548  -20.1906   23.3420 C   0  0  0  0  0  0  0  0  0  0  0  0
  -17.8639  -21.4819   23.6239 C   0  0  0  0  0  0  0  0  0  0  0  0
  -17.0107  -22.4451   24.0229 N   0  0  0  0  0  0  0  0  0  0  0  0
  -11.4951  -22.0325   27.5228 H   0  0  0  0  0  0  0  0  0  0  0  0
  -12.0171  -23.2089   28.6646 H   0  0  0  0  0  0  0  0  0  0  0  0
  -10.3326  -23.2024   28.1734 H   0  0  0  0  0  0  0  0  0  0  0  0
  -10.9637  -23.6053   25.8979 H   0  0  0  0  0  0  0  0  0  0  0  0
  -10.3373  -25.6966   27.4193 H   0  0  0  0  0  0  0  0  0  0  0  0
  -12.0456  -26.2073   27.0091 H   0  0  0  0  0  0  0  0  0  0  0  0
  -10.1198  -25.1313   25.1894 H   0  0  0  0  0  0  0  0  0  0  0  0
  -11.8855  -25.8301   25.1902 H   0  0  0  0  0  0  0  0  0  0  0  0
  -10.7177  -28.1124   24.9485 H   0  0  0  0  0  0  0  0  0  0  0  0
  -10.6623  -28.4746   21.0146 H   0  0  0  0  0  0  0  0  0  0  0  0
  -12.6695  -30.2781   20.6176 H   0  0  0  0  0  0  0  0  0  0  0  0
  -11.6900  -29.7229   19.4140 H   0  0  0  0  0  0  0  0  0  0  0  0
  -12.4293  -32.2963   20.0720 H   0  0  0  0  0  0  0  0  0  0  0  0
  -10.6702  -32.2465   19.8035 H   0  0  0  0  0  0  0  0  0  0  0  0
   -9.5349  -31.2690   21.1591 H   0  0  0  0  0  0  0  0  0  0  0  0
   -9.8615  -31.2537   22.9213 H   0  0  0  0  0  0  0  0  0  0  0  0
  -13.7337  -24.2338   26.4436 H   0  0  0  0  0  0  0  0  0  0  0  0
  -15.0737  -24.1060   24.4644 H   0  0  0  0  0  0  0  0  0  0  0  0
  -15.2587  -23.0655   25.7716 H   0  0  0  0  0  0  0  0  0  0  0  0
  -14.2762  -20.4484   23.8668 H   0  0  0  0  0  0  0  0  0  0  0  0
  -18.1612  -19.4320   23.0263 H   0  0  0  0  0  0  0  0  0  0  0  0
  -18.9042  -21.7721   23.5369 H   0  0  0  0  0  0  0  0  0  0  0  0
  1  2  1  0
  2  3  1  0
  3  4  1  0
  4  5  1  0
  5  6  1  0
  6  7  2  0
  6  8  1  0
  8  9  1  0
  9 10  1  0
 10 11  1  0
 11 12  1  0
  2 13  1  0
 13 14  1  0
 14 15  2  0
 14 16  1  0
 16 17  1  0
 17 18  2  0
 18 19  1  0
 19 20  2  0
 20 21  1  0
 21 22  2  0
 12  8  1  0
 22 17  1  0
  1 23  1  0
  1 24  1  0
  1 25  1  0
  2 26  1  0
  3 27  1  0
  3 28  1  0
  4 29  1  0
  4 30  1  0
  5 31  1  0
  8 32  1  0
  9 33  1  0
  9 34  1  0
 10 35  1  0
 10 36  1  0
 12 37  1  0
 12 38  1  0
 13 39  1  0
 16 40  1  0
 16 41  1  0
 18 42  1  0
 20 43  1  0
 21 44  1  0
M  END
>  <Energy>  (807) 
478.66975086358417

>  <compound_id>  (807) 
92075

>  <target_id>  (807) 
1

>  <reference_id>  (807) 
28

>  <inspiration_ids>  (807) 
[28, 54]

>  <energy_score>  (807) 
410.72661063300245

>  <distance_score>  (807) 
9.255838488857494

>  <path>  (807) 
/opt/xchem-fragalysis-2/maxwin/BulkDock/SCRATCH/511025/C92075-P28/C92075-P28.minimised.mol

>  <scratch_subdir>  (807) 
/opt/xchem-fragalysis-2/maxwin/BulkDock/SCRATCH/511025/C92075-P28

>  <fragmenstein_runtime>  (807) 
33.035961866378784

>  <fragmenstein_outcome>  (807) 
too moved

>  <fragmenstein_mode>  (807) 
expansion

>  <fragmenstein_error>  (807) 


$$$$
C92075-P54
     RDKit          3D

 44 45  0  0  0  0  0  0  0  0999 V2000
  -10.2528  -22.9964   29.9676 C   0  0  0  0  0  0  0  0  0  0  0  0
  -10.3282  -23.5634   28.5539 C   0  0  0  0  0  0  0  0  0  0  0  0
  -11.2866  -22.7157   27.6926 C   0  0  0  0  0  0  0  0  0  0  0  0
  -11.5315  -23.3440   26.3201 C   0  0  0  0  0  0  0  0  0  0  0  0
  -11.9630  -22.4628   25.2644 N   0  0  0  0  0  0  0  0  0  0  0  0
  -13.1856  -22.4059   24.5322 C   0  0  0  0  0  0  0  0  0  0  0  0
  -14.2038  -23.0263   24.6592 O   0  0  0  0  0  0  0  0  0  0  0  0
  -13.0649  -21.4289   23.3300 C   0  0  0  0  0  0  0  0  0  0  0  0
  -12.8898  -19.9661   23.6180 C   0  0  0  0  0  0  0  0  0  0  0  0
  -12.3557  -19.3534   22.3641 C   0  0  0  0  0  0  0  0  0  0  0  0
  -11.6314  -20.3945   21.7425 O   0  0  0  0  0  0  0  0  0  0  0  0
  -11.8871  -21.6470   22.3891 C   0  0  0  0  0  0  0  0  0  0  0  0
  -10.7583  -24.9443   28.6218 N   0  0  0  0  0  0  0  0  0  0  0  0
  -10.6195  -26.0303   27.6731 C   0  0  0  0  0  0  0  0  0  0  0  0
  -10.0425  -26.0833   26.6225 O   0  0  0  0  0  0  0  0  0  0  0  0
  -11.4343  -27.2406   28.1392 C   0  0  0  0  0  0  0  0  0  0  0  0
  -12.8716  -26.8448   28.3092 C   0  0  0  0  0  0  0  0  0  0  0  0
  -13.4343  -26.7731   29.5769 C   0  0  0  0  0  0  0  0  0  0  0  0
  -14.6282  -26.1927   29.8079 N   0  0  0  0  0  0  0  0  0  0  0  0
  -15.2674  -25.7157   28.7134 C   0  0  0  0  0  0  0  0  0  0  0  0
  -14.7300  -25.8103   27.4444 C   0  0  0  0  0  0  0  0  0  0  0  0
  -13.5262  -26.3829   27.2152 N   0  0  0  0  0  0  0  0  0  0  0  0
  -10.0490  -21.9247   29.9529 H   0  0  0  0  0  0  0  0  0  0  0  0
  -11.1961  -23.1432   30.5065 H   0  0  0  0  0  0  0  0  0  0  0  0
   -9.4655  -23.4947   30.5435 H   0  0  0  0  0  0  0  0  0  0  0  0
   -9.3362  -23.5535   28.0934 H   0  0  0  0  0  0  0  0  0  0  0  0
  -12.2469  -22.6073   28.2061 H   0  0  0  0  0  0  0  0  0  0  0  0
  -10.8757  -21.7057   27.5805 H   0  0  0  0  0  0  0  0  0  0  0  0
  -12.2682  -24.1462   26.3967 H   0  0  0  0  0  0  0  0  0  0  0  0
  -10.5943  -23.7597   25.9421 H   0  0  0  0  0  0  0  0  0  0  0  0
  -11.3542  -21.7429   24.9355 H   0  0  0  0  0  0  0  0  0  0  0  0
  -14.0032  -21.5198   22.7820 H   0  0  0  0  0  0  0  0  0  0  0  0
  -13.8212  -19.4834   23.9250 H   0  0  0  0  0  0  0  0  0  0  0  0
  -12.1187  -19.8436   24.3787 H   0  0  0  0  0  0  0  0  0  0  0  0
  -13.1564  -18.9925   21.7133 H   0  0  0  0  0  0  0  0  0  0  0  0
  -11.7014  -18.5007   22.5556 H   0  0  0  0  0  0  0  0  0  0  0  0
  -12.0945  -22.3769   21.6080 H   0  0  0  0  0  0  0  0  0  0  0  0
  -10.9683  -21.9255   22.9069 H   0  0  0  0  0  0  0  0  0  0  0  0
  -11.3851  -25.2299   29.3615 H   0  0  0  0  0  0  0  0  0  0  0  0
  -11.0056  -27.6349   29.0658 H   0  0  0  0  0  0  0  0  0  0  0  0
  -11.3654  -28.0301   27.3845 H   0  0  0  0  0  0  0  0  0  0  0  0
  -12.9202  -27.1444   30.4573 H   0  0  0  0  0  0  0  0  0  0  0  0
  -16.2352  -25.2557   28.8850 H   0  0  0  0  0  0  0  0  0  0  0  0
  -15.2508  -25.4159   26.5783 H   0  0  0  0  0  0  0  0  0  0  0  0
  1  2  1  0
  2  3  1  0
  3  4  1  0
  4  5  1  0
  5  6  1  0
  6  7  2  0
  6  8  1  0
  8  9  1  0
  9 10  1  0
 10 11  1  0
 11 12  1  0
  2 13  1  0
 13 14  1  0
 14 15  2  0
 14 16  1  0
 16 17  1  0
 17 18  2  0
 18 19  1  0
 19 20  2  0
 20 21  1  0
 21 22  2  0
 12  8  1  0
 22 17  1  0
  1 23  1  0
  1 24  1  0
  1 25  1  0
  2 26  1  0
  3 27  1  0
  3 28  1  0
  4 29  1  0
  4 30  1  0
  5 31  1  0
  8 32  1  0
  9 33  1  0
  9 34  1  0
 10 35  1  0
 10 36  1  0
 12 37  1  0
 12 38  1  0
 13 39  1  0
 16 40  1  0
 16 41  1  0
 18 42  1  0
 20 43  1  0
 21 44  1  0
M  END
>  <Energy>  (808) 
54.987125014233158

>  <compound_id>  (808) 
92075

>  <target_id>  (808) 
1

>  <reference_id>  (808) 
54

>  <inspiration_ids>  (808) 
[28, 54]

>  <energy_score>  (808) 
-12.956015216337335

>  <distance_score>  (808) 
8.150985158617855

>  <path>  (808) 
/opt/xchem-fragalysis-2/maxwin/BulkDock/SCRATCH/511025/C92075-P54/C92075-P54.minimised.mol

>  <scratch_subdir>  (808) 
/opt/xchem-fragalysis-2/maxwin/BulkDock/SCRATCH/511025/C92075-P54

>  <fragmenstein_runtime>  (808) 
28.497806072235107

>  <fragmenstein_outcome>  (808) 
too moved

>  <fragmenstein_mode>  (808) 
expansion

>  <fragmenstein_error>  (808) 


$$$$
C92077-P28
     RDKit          3D

 43 44  0  0  0  0  0  0  0  0999 V2000
   -9.7699  -23.4122   15.6546 C   0  0  0  0  0  0  0  0  0  0  0  0
   -9.5700  -21.8361   16.0683 C   0  0  0  0  0  0  0  0  0  0  0  0
   -9.0473  -20.8649   17.7877 C   0  0  0  0  0  0  0  0  0  0  0  0
   -9.3986  -20.8286   19.7967 C   0  0  0  0  0  0  0  0  0  0  0  0
  -10.8110  -21.1824   21.0673 N   0  0  0  0  0  0  0  0  0  0  0  0
  -10.9990  -21.5072   22.0898 C   0  0  0  0  0  0  0  0  0  0  0  0
   -9.5065  -21.6065   22.6864 O   0  0  0  0  0  0  0  0  0  0  0  0
  -12.0724  -21.8694   23.2531 C   0  0  0  0  0  0  0  0  0  0  0  0
  -11.0968  -22.8319   23.7207 O   0  0  0  0  0  0  0  0  0  0  0  0
  -12.1476  -21.1522   24.5475 C   0  0  0  0  0  0  0  0  0  0  0  0
  -12.4562  -22.2831   25.6066 C   0  0  0  0  0  0  0  0  0  0  0  0
  -13.4642  -23.0450   24.9362 O   0  0  0  0  0  0  0  0  0  0  0  0
  -13.4220  -22.5168   23.5777 C   0  0  0  0  0  0  0  0  0  0  0  0
   -9.2156  -21.9368   14.6207 N   0  0  0  0  0  0  0  0  0  0  0  0
  -10.0637  -22.0428   13.4395 C   0  0  0  0  0  0  0  0  0  0  0  0
  -11.2508  -21.9897   13.3256 O   0  0  0  0  0  0  0  0  0  0  0  0
   -9.3193  -22.3673   12.2315 C   0  0  0  0  0  0  0  0  0  0  0  0
   -9.6802  -23.7670   11.9207 N   0  0  0  0  0  0  0  0  0  0  0  0
   -8.7093  -24.7167   11.9296 N   0  0  0  0  0  0  0  0  0  0  0  0
   -9.3709  -25.7972   11.5025 C   0  0  0  0  0  0  0  0  0  0  0  0
  -10.6710  -25.4428   11.1382 C   0  0  0  0  0  0  0  0  0  0  0  0
  -10.8399  -24.1292   11.3113 N   0  0  0  0  0  0  0  0  0  0  0  0
  -10.6708  -23.9653   15.8621 H   0  0  0  0  0  0  0  0  0  0  0  0
   -9.8030  -23.8011   14.6146 H   0  0  0  0  0  0  0  0  0  0  0  0
   -8.8512  -23.9190   15.8652 H   0  0  0  0  0  0  0  0  0  0  0  0
  -10.2170  -21.0824   15.7221 H   0  0  0  0  0  0  0  0  0  0  0  0
   -9.3932  -21.7534   18.1084 H   0  0  0  0  0  0  0  0  0  0  0  0
   -7.9707  -20.7416   17.7613 H   0  0  0  0  0  0  0  0  0  0  0  0
   -8.6228  -20.1195   20.0882 H   0  0  0  0  0  0  0  0  0  0  0  0
   -9.0314  -21.6048   20.3795 H   0  0  0  0  0  0  0  0  0  0  0  0
  -11.0539  -20.9828   20.1872 H   0  0  0  0  0  0  0  0  0  0  0  0
  -10.1714  -22.5531   23.4959 H   0  0  0  0  0  0  0  0  0  0  0  0
  -11.2643  -20.5815   24.6311 H   0  0  0  0  0  0  0  0  0  0  0  0
  -12.9676  -20.4638   24.4979 H   0  0  0  0  0  0  0  0  0  0  0  0
  -11.6896  -23.0316   25.8315 H   0  0  0  0  0  0  0  0  0  0  0  0
  -12.7050  -21.9576   26.6144 H   0  0  0  0  0  0  0  0  0  0  0  0
  -13.6780  -23.3314   22.9798 H   0  0  0  0  0  0  0  0  0  0  0  0
  -14.2567  -21.8168   23.5944 H   0  0  0  0  0  0  0  0  0  0  0  0
   -8.2483  -22.1133   14.3545 H   0  0  0  0  0  0  0  0  0  0  0  0
   -9.6087  -21.7467   11.3988 H   0  0  0  0  0  0  0  0  0  0  0  0
   -8.2417  -22.3064   12.4075 H   0  0  0  0  0  0  0  0  0  0  0  0
   -8.8742  -26.7561   11.4594 H   0  0  0  0  0  0  0  0  0  0  0  0
  -11.4702  -26.0455   10.7312 H   0  0  0  0  0  0  0  0  0  0  0  0
  1  2  1  0
  2  3  1  0
  3  4  1  0
  4  5  1  0
  5  6  1  0
  6  7  2  0
  6  8  1  0
  8  9  1  0
  8 10  1  0
 10 11  1  0
 11 12  1  0
 12 13  1  0
  2 14  1  0
 14 15  1  0
 15 16  2  0
 15 17  1  0
 17 18  1  0
 18 19  1  0
 19 20  2  0
 20 21  1  0
 21 22  2  0
 13  8  1  0
 22 18  1  0
  1 23  1  0
  1 24  1  0
  1 25  1  0
  2 26  1  0
  3 27  1  0
  3 28  1  0
  4 29  1  0
  4 30  1  0
  5 31  1  0
  9 32  1  0
 10 33  1  0
 10 34  1  0
 11 35  1  0
 11 36  1  0
 13 37  1  0
 13 38  1  0
 14 39  1  0
 17 40  1  0
 17 41  1  0
 20 42  1  0
 21 43  1  0
M  END
>  <Energy>  (809) 
732.61392651015558

>  <compound_id>  (809) 
92077

>  <target_id>  (809) 
1

>  <reference_id>  (809) 
28

>  <inspiration_ids>  (809) 
[28, 54]

>  <energy_score>  (809) 
650.0690954164413

>  <distance_score>  (809) 
3.7577422706536985

>  <path>  (809) 
/opt/xchem-fragalysis-2/maxwin/BulkDock/SCRATCH/511025/C92077-P28/C92077-P28.minimised.mol

>  <scratch_subdir>  (809) 
/opt/xchem-fragalysis-2/maxwin/BulkDock/SCRATCH/511025/C92077-P28

>  <fragmenstein_runtime>  (809) 
18.329590797424316

>  <fragmenstein_outcome>  (809) 
too moved

>  <fragmenstein_mode>  (809) 
expansion

>  <fragmenstein_error>  (809) 


$$$$
C92077-P54
     RDKit          3D

 43 44  0  0  0  0  0  0  0  0999 V2000
   -8.4158  -20.7869   17.6898 C   0  0  0  0  0  0  0  0  0  0  0  0
   -9.4568  -21.8332   17.6012 C   0  0  0  0  0  0  0  0  0  0  0  0
   -9.9451  -22.4198   19.6016 C   0  0  0  0  0  0  0  0  0  0  0  0
   -9.9442  -24.4301   20.2943 C   0  0  0  0  0  0  0  0  0  0  0  0
  -10.8144  -25.3114   21.3620 N   0  0  0  0  0  0  0  0  0  0  0  0
  -10.2797  -26.7033   22.7272 C   0  0  0  0  0  0  0  0  0  0  0  0
   -9.1836  -27.1652   22.8243 O   0  0  0  0  0  0  0  0  0  0  0  0
  -11.3437  -27.3150   24.3485 C   0  0  0  0  0  0  0  0  0  0  0  0
  -12.6367  -27.6167   24.8303 O   0  0  0  0  0  0  0  0  0  0  0  0
  -11.4790  -25.8986   25.4931 C   0  0  0  0  0  0  0  0  0  0  0  0
  -10.9608  -26.1918   26.8646 C   0  0  0  0  0  0  0  0  0  0  0  0
   -9.7048  -26.6647   26.4567 O   0  0  0  0  0  0  0  0  0  0  0  0
  -10.0342  -27.7089   25.5305 C   0  0  0  0  0  0  0  0  0  0  0  0
   -9.5031  -23.1026   16.1146 N   0  0  0  0  0  0  0  0  0  0  0  0
  -10.0289  -22.9841   14.7392 C   0  0  0  0  0  0  0  0  0  0  0  0
  -10.6346  -22.1028   14.2117 O   0  0  0  0  0  0  0  0  0  0  0  0
   -9.8155  -24.2678   13.9458 C   0  0  0  0  0  0  0  0  0  0  0  0
  -10.9445  -24.8285   13.1910 N   0  0  0  0  0  0  0  0  0  0  0  0
  -10.7666  -25.1056   11.8595 N   0  0  0  0  0  0  0  0  0  0  0  0
  -11.6545  -26.0762   11.6435 C   0  0  0  0  0  0  0  0  0  0  0  0
  -12.3129  -26.3940   12.8309 C   0  0  0  0  0  0  0  0  0  0  0  0
  -11.8391  -25.6493   13.8318 N   0  0  0  0  0  0  0  0  0  0  0  0
   -7.4204  -21.1804   17.5733 H   0  0  0  0  0  0  0  0  0  0  0  0
   -8.6910  -20.3199   18.6335 H   0  0  0  0  0  0  0  0  0  0  0  0
   -8.4565  -19.9259   17.0636 H   0  0  0  0  0  0  0  0  0  0  0  0
   -9.8550  -21.0391   16.9881 H   0  0  0  0  0  0  0  0  0  0  0  0
  -10.9128  -22.0549   20.1086 H   0  0  0  0  0  0  0  0  0  0  0  0
   -9.4226  -21.7254   20.3061 H   0  0  0  0  0  0  0  0  0  0  0  0
  -10.8897  -23.8852   20.8189 H   0  0  0  0  0  0  0  0  0  0  0  0
   -8.9446  -24.7690   20.7574 H   0  0  0  0  0  0  0  0  0  0  0  0
  -11.7998  -25.1415   21.3978 H   0  0  0  0  0  0  0  0  0  0  0  0
  -12.5892  -27.9201   25.7566 H   0  0  0  0  0  0  0  0  0  0  0  0
  -10.7904  -25.0894   25.2378 H   0  0  0  0  0  0  0  0  0  0  0  0
  -12.5169  -25.5436   25.5798 H   0  0  0  0  0  0  0  0  0  0  0  0
  -10.8464  -25.2945   27.4794 H   0  0  0  0  0  0  0  0  0  0  0  0
  -11.5322  -26.9436   27.4186 H   0  0  0  0  0  0  0  0  0  0  0  0
   -9.1397  -28.0413   25.0196 H   0  0  0  0  0  0  0  0  0  0  0  0
  -10.2903  -28.4384   26.2910 H   0  0  0  0  0  0  0  0  0  0  0  0
   -8.9673  -23.9454   16.1907 H   0  0  0  0  0  0  0  0  0  0  0  0
   -9.5322  -25.0893   14.6067 H   0  0  0  0  0  0  0  0  0  0  0  0
   -9.0532  -24.0477   13.1917 H   0  0  0  0  0  0  0  0  0  0  0  0
  -11.7686  -26.4945   10.6541 H   0  0  0  0  0  0  0  0  0  0  0  0
  -13.0825  -27.1282   13.0196 H   0  0  0  0  0  0  0  0  0  0  0  0
  1  2  1  0
  2  3  1  0
  3  4  1  0
  4  5  1  0
  5  6  1  0
  6  7  2  0
  6  8  1  0
  8  9  1  0
  8 10  1  0
 10 11  1  0
 11 12  1  0
 12 13  1  0
  2 14  1  0
 14 15  1  0
 15 16  2  0
 15 17  1  0
 17 18  1  0
 18 19  1  0
 19 20  2  0
 20 21  1  0
 21 22  2  0
 13  8  1  0
 22 18  1  0
  1 23  1  0
  1 24  1  0
  1 25  1  0
  2 26  1  0
  3 27  1  0
  3 28  1  0
  4 29  1  0
  4 30  1  0
  5 31  1  0
  9 32  1  0
 10 33  1  0
 10 34  1  0
 11 35  1  0
 11 36  1  0
 13 37  1  0
 13 38  1  0
 14 39  1  0
 17 40  1  0
 17 41  1  0
 20 42  1  0
 21 43  1  0
M  END
>  <Energy>  (810) 
751.76309114333287

>  <compound_id>  (810) 
92077

>  <target_id>  (810) 
1

>  <reference_id>  (810) 
54

>  <inspiration_ids>  (810) 
[28, 54]

>  <energy_score>  (810) 
669.2182600496161

>  <distance_score>  (810) 
3.784598420468164

>  <path>  (810) 
/opt/xchem-fragalysis-2/maxwin/BulkDock/SCRATCH/511025/C92077-P54/C92077-P54.minimised.mol

>  <scratch_subdir>  (810) 
/opt/xchem-fragalysis-2/maxwin/BulkDock/SCRATCH/511025/C92077-P54

>  <fragmenstein_runtime>  (810) 
15.25644302368164

>  <fragmenstein_outcome>  (810) 
too moved

>  <fragmenstein_mode>  (810) 
expansion

>  <fragmenstein_error>  (810) 


$$$$
C92079-P28
     RDKit          3D

 45 46  0  0  0  0  0  0  0  0999 V2000
  -17.4086  -33.9460   16.1258 C   0  0  0  0  0  0  0  0  0  0  0  0
  -15.7345  -34.0587   16.8066 S   0  0  0  0  0  0  0  0  0  0  0  0
  -15.8276  -32.7345   18.0591 C   0  0  0  0  0  0  0  0  0  0  0  0
  -15.7007  -31.3543   17.4253 C   0  0  0  0  0  0  0  0  0  0  0  0
  -15.6998  -30.2537   18.4860 C   0  0  0  0  0  0  0  0  0  0  0  0
  -15.8576  -30.5177   19.6407 O   0  0  0  0  0  0  0  0  0  0  0  0
  -15.4749  -28.9932   17.8346 N   0  0  0  0  0  0  0  0  0  0  0  0
  -15.4638  -27.6343   18.3611 C   0  0  0  0  0  0  0  0  0  0  0  0
  -16.8949  -27.2247   18.8322 C   0  0  0  0  0  0  0  0  0  0  0  0
  -17.0607  -27.0369   20.2741 N   0  0  0  0  0  0  0  0  0  0  0  0
  -18.2047  -26.6415   21.0461 C   0  0  0  0  0  0  0  0  0  0  0  0
  -19.3379  -26.4409   20.7168 O   0  0  0  0  0  0  0  0  0  0  0  0
  -17.8804  -26.3350   22.5028 C   0  0  0  0  0  0  0  0  0  0  0  0
  -18.7465  -25.5182   23.2233 C   0  0  0  0  0  0  0  0  0  0  0  0
  -18.4630  -25.0401   24.4679 N   0  0  0  0  0  0  0  0  0  0  0  0
  -17.2828  -25.4216   24.9862 C   0  0  0  0  0  0  0  0  0  0  0  0
  -16.4137  -26.2366   24.2865 C   0  0  0  0  0  0  0  0  0  0  0  0
  -16.6727  -26.7062   23.0295 N   0  0  0  0  0  0  0  0  0  0  0  0
  -14.8010  -26.6264   17.3863 C   0  0  0  0  0  0  0  0  0  0  0  0
  -15.3801  -26.4819   15.9900 C   0  0  0  0  0  0  0  0  0  0  0  0
  -14.2608  -25.7746   15.2439 C   0  0  0  0  0  0  0  0  0  0  0  0
  -13.0338  -26.1224   15.9024 O   0  0  0  0  0  0  0  0  0  0  0  0
  -13.3443  -26.9219   17.0533 C   0  0  0  0  0  0  0  0  0  0  0  0
  -18.1523  -34.0734   16.9165 H   0  0  0  0  0  0  0  0  0  0  0  0
  -17.5478  -34.7418   15.3891 H   0  0  0  0  0  0  0  0  0  0  0  0
  -17.5598  -32.9863   15.6261 H   0  0  0  0  0  0  0  0  0  0  0  0
  -16.7586  -32.8334   18.6277 H   0  0  0  0  0  0  0  0  0  0  0  0
  -15.0044  -32.8977   18.7637 H   0  0  0  0  0  0  0  0  0  0  0  0
  -14.7631  -31.2844   16.8598 H   0  0  0  0  0  0  0  0  0  0  0  0
  -16.5388  -31.1619   16.7460 H   0  0  0  0  0  0  0  0  0  0  0  0
  -15.4690  -29.1366   16.8301 H   0  0  0  0  0  0  0  0  0  0  0  0
  -14.8237  -27.6844   19.2483 H   0  0  0  0  0  0  0  0  0  0  0  0
  -17.6505  -27.9560   18.5231 H   0  0  0  0  0  0  0  0  0  0  0  0
  -17.1876  -26.2710   18.3788 H   0  0  0  0  0  0  0  0  0  0  0  0
  -16.2441  -27.0320   20.8704 H   0  0  0  0  0  0  0  0  0  0  0  0
  -19.6908  -25.1829   22.8021 H   0  0  0  0  0  0  0  0  0  0  0  0
  -17.0687  -25.0547   25.9799 H   0  0  0  0  0  0  0  0  0  0  0  0
  -15.4632  -26.5222   24.7195 H   0  0  0  0  0  0  0  0  0  0  0  0
  -14.8287  -25.6331   17.8515 H   0  0  0  0  0  0  0  0  0  0  0  0
  -16.3170  -25.9183   15.9626 H   0  0  0  0  0  0  0  0  0  0  0  0
  -15.5631  -27.4576   15.5278 H   0  0  0  0  0  0  0  0  0  0  0  0
  -14.2102  -26.0691   14.1918 H   0  0  0  0  0  0  0  0  0  0  0  0
  -14.3825  -24.6884   15.2960 H   0  0  0  0  0  0  0  0  0  0  0  0
  -12.6656  -26.6661   17.8715 H   0  0  0  0  0  0  0  0  0  0  0  0
  -13.1797  -27.9705   16.7832 H   0  0  0  0  0  0  0  0  0  0  0  0
  1  2  1  0
  2  3  1  0
  3  4  1  0
  4  5  1  0
  5  6  2  0
  5  7  1  0
  7  8  1  0
  8  9  1  0
  9 10  1  0
 10 11  1  0
 11 12  2  0
 11 13  1  0
 13 14  2  0
 14 15  1  0
 15 16  2  0
 16 17  1  0
 17 18  2  0
  8 19  1  0
 19 20  1  0
 20 21  1  0
 21 22  1  0
 22 23  1  0
 18 13  1  0
 23 19  1  0
  1 24  1  0
  1 25  1  0
  1 26  1  0
  3 27  1  0
  3 28  1  0
  4 29  1  0
  4 30  1  0
  7 31  1  0
  8 32  1  0
  9 33  1  0
  9 34  1  0
 10 35  1  0
 14 36  1  0
 16 37  1  0
 17 38  1  0
 19 39  1  0
 20 40  1  0
 20 41  1  0
 21 42  1  0
 21 43  1  0
 23 44  1  0
 23 45  1  0
M  END
>  <Energy>  (811) 
99.070672713283159

>  <compound_id>  (811) 
92079

>  <target_id>  (811) 
1

>  <reference_id>  (811) 
28

>  <inspiration_ids>  (811) 
[28, 54]

>  <energy_score>  (811) 
-30.008984040047608

>  <distance_score>  (811) 
8.124838468159968

>  <path>  (811) 
/opt/xchem-fragalysis-2/maxwin/BulkDock/SCRATCH/511025/C92079-P28/C92079-P28.minimised.mol

>  <scratch_subdir>  (811) 
/opt/xchem-fragalysis-2/maxwin/BulkDock/SCRATCH/511025/C92079-P28

>  <fragmenstein_runtime>  (811) 
36.37870216369629

>  <fragmenstein_outcome>  (811) 
too moved

>  <fragmenstein_mode>  (811) 
expansion

>  <fragmenstein_error>  (811) 


$$$$
C92079-P54
     RDKit          3D

 45 46  0  0  0  0  0  0  0  0999 V2000
  -18.6638  -25.1561   14.8067 C   0  0  0  0  0  0  0  0  0  0  0  0
  -17.8041  -25.4974   16.3638 S   0  0  0  0  0  0  0  0  0  0  0  0
  -18.4114  -27.1951   16.6559 C   0  0  0  0  0  0  0  0  0  0  0  0
  -17.9139  -27.7327   17.9930 C   0  0  0  0  0  0  0  0  0  0  0  0
  -16.5054  -28.3247   17.9325 C   0  0  0  0  0  0  0  0  0  0  0  0
  -16.3647  -29.4930   18.1481 O   0  0  0  0  0  0  0  0  0  0  0  0
  -15.5448  -27.3074   17.6376 N   0  0  0  0  0  0  0  0  0  0  0  0
  -14.1121  -27.3863   17.4126 C   0  0  0  0  0  0  0  0  0  0  0  0
  -13.3548  -26.2436   18.1216 C   0  0  0  0  0  0  0  0  0  0  0  0
  -13.5775  -26.1301   19.5631 N   0  0  0  0  0  0  0  0  0  0  0  0
  -13.1963  -25.0040   20.5685 C   0  0  0  0  0  0  0  0  0  0  0  0
  -12.5591  -24.0124   20.3838 O   0  0  0  0  0  0  0  0  0  0  0  0
  -13.7133  -25.0603   22.2340 C   0  0  0  0  0  0  0  0  0  0  0  0
  -13.5679  -23.5986   23.1827 C   0  0  0  0  0  0  0  0  0  0  0  0
  -13.8025  -23.4118   24.5326 N   0  0  0  0  0  0  0  0  0  0  0  0
  -14.1938  -24.5427   25.1653 C   0  0  0  0  0  0  0  0  0  0  0  0
  -14.4001  -25.7720   24.4950 C   0  0  0  0  0  0  0  0  0  0  0  0
  -14.2080  -26.0945   23.0683 N   0  0  0  0  0  0  0  0  0  0  0  0
  -13.7983  -27.5111   15.8920 C   0  0  0  0  0  0  0  0  0  0  0  0
  -14.2052  -26.3236   15.0218 C   0  0  0  0  0  0  0  0  0  0  0  0
  -13.1009  -26.2307   13.9918 C   0  0  0  0  0  0  0  0  0  0  0  0
  -11.9272  -26.6562   14.6812 O   0  0  0  0  0  0  0  0  0  0  0  0
  -12.3172  -27.7155   15.5600 C   0  0  0  0  0  0  0  0  0  0  0  0
  -19.7460  -25.2071   14.9505 H   0  0  0  0  0  0  0  0  0  0  0  0
  -18.3580  -25.8728   14.0402 H   0  0  0  0  0  0  0  0  0  0  0  0
  -18.4037  -24.1502   14.4666 H   0  0  0  0  0  0  0  0  0  0  0  0
  -19.5055  -27.1604   16.6675 H   0  0  0  0  0  0  0  0  0  0  0  0
  -18.0883  -27.8378   15.8306 H   0  0  0  0  0  0  0  0  0  0  0  0
  -18.5808  -28.5506   18.2973 H   0  0  0  0  0  0  0  0  0  0  0  0
  -17.9649  -26.9883   18.7947 H   0  0  0  0  0  0  0  0  0  0  0  0
  -16.0359  -26.4375   17.4281 H   0  0  0  0  0  0  0  0  0  0  0  0
  -13.7981  -28.3288   17.8820 H   0  0  0  0  0  0  0  0  0  0  0  0
  -12.3060  -26.5012   17.9840 H   0  0  0  0  0  0  0  0  0  0  0  0
  -13.6256  -25.2793   17.6934 H   0  0  0  0  0  0  0  0  0  0  0  0
  -14.1691  -26.7597   19.9966 H   0  0  0  0  0  0  0  0  0  0  0  0
  -13.1555  -22.7158   22.6847 H   0  0  0  0  0  0  0  0  0  0  0  0
  -14.3841  -24.4456   26.2300 H   0  0  0  0  0  0  0  0  0  0  0  0
  -14.7726  -26.6081   25.0863 H   0  0  0  0  0  0  0  0  0  0  0  0
  -14.3410  -28.3962   15.5297 H   0  0  0  0  0  0  0  0  0  0  0  0
  -14.2599  -25.3978   15.5988 H   0  0  0  0  0  0  0  0  0  0  0  0
  -15.1830  -26.4644   14.5510 H   0  0  0  0  0  0  0  0  0  0  0  0
  -13.2794  -26.9097   13.1506 H   0  0  0  0  0  0  0  0  0  0  0  0
  -12.9629  -25.2193   13.6044 H   0  0  0  0  0  0  0  0  0  0  0  0
  -12.1789  -28.6611   15.0224 H   0  0  0  0  0  0  0  0  0  0  0  0
  -11.6463  -27.7367   16.4212 H   0  0  0  0  0  0  0  0  0  0  0  0
  1  2  1  0
  2  3  1  0
  3  4  1  0
  4  5  1  0
  5  6  2  0
  5  7  1  0
  7  8  1  0
  8  9  1  0
  9 10  1  0
 10 11  1  0
 11 12  2  0
 11 13  1  0
 13 14  2  0
 14 15  1  0
 15 16  2  0
 16 17  1  0
 17 18  2  0
  8 19  1  0
 19 20  1  0
 20 21  1  0
 21 22  1  0
 22 23  1  0
 18 13  1  0
 23 19  1  0
  1 24  1  0
  1 25  1  0
  1 26  1  0
  3 27  1  0
  3 28  1  0
  4 29  1  0
  4 30  1  0
  7 31  1  0
  8 32  1  0
  9 33  1  0
  9 34  1  0
 10 35  1  0
 14 36  1  0
 16 37  1  0
 17 38  1  0
 19 39  1  0
 20 40  1  0
 20 41  1  0
 21 42  1  0
 21 43  1  0
 23 44  1  0
 23 45  1  0
M  END
>  <Energy>  (812) 
181.20697801509513

>  <compound_id>  (812) 
92079

>  <target_id>  (812) 
1

>  <reference_id>  (812) 
54

>  <inspiration_ids>  (812) 
[28, 54]

>  <energy_score>  (812) 
52.127321261766156

>  <distance_score>  (812) 
6.355131329862669

>  <path>  (812) 
/opt/xchem-fragalysis-2/maxwin/BulkDock/SCRATCH/511025/C92079-P54/C92079-P54.minimised.mol

>  <scratch_subdir>  (812) 
/opt/xchem-fragalysis-2/maxwin/BulkDock/SCRATCH/511025/C92079-P54

>  <fragmenstein_runtime>  (812) 
31.199001789093018

>  <fragmenstein_outcome>  (812) 
too moved

>  <fragmenstein_mode>  (812) 
expansion

>  <fragmenstein_error>  (812) 


$$$$
C92083-P28
     RDKit          3D

 48 49  0  0  0  0  0  0  0  0999 V2000
  -17.3852  -25.7677   16.3734 C   0  0  0  0  0  0  0  0  0  0  0  0
  -16.2348  -25.4430   17.3199 C   0  0  0  0  0  0  0  0  0  0  0  0
  -14.9197  -26.0471   16.8316 C   0  0  0  0  0  0  0  0  0  0  0  0
  -13.6335  -25.5219   17.3639 N   0  0  0  0  0  0  0  0  0  0  0  0
  -13.5054  -25.6061   18.9070 C   0  0  0  0  0  0  0  0  0  0  0  0
  -12.7897  -24.2628   19.9443 C   0  0  0  0  0  0  0  0  0  0  0  0
  -12.2666  -23.2975   21.2524 N   0  0  0  0  0  0  0  0  0  0  0  0
  -13.0618  -22.7700   22.5506 C   0  0  0  0  0  0  0  0  0  0  0  0
  -14.2341  -22.8595   22.8404 O   0  0  0  0  0  0  0  0  0  0  0  0
  -12.3710  -22.2205   23.6091 C   0  0  0  0  0  0  0  0  0  0  0  0
  -12.9513  -23.0622   24.7846 C   0  0  0  0  0  0  0  0  0  0  0  0
  -12.6510  -22.9900   26.0644 N   0  0  0  0  0  0  0  0  0  0  0  0
  -12.1640  -21.7952   26.2076 C   0  0  0  0  0  0  0  0  0  0  0  0
  -12.0352  -20.9126   25.0164 C   0  0  0  0  0  0  0  0  0  0  0  0
  -11.7073  -21.1537   23.7351 N   0  0  0  0  0  0  0  0  0  0  0  0
  -12.5386  -26.3590   16.6950 C   0  0  0  0  0  0  0  0  0  0  0  0
  -12.5106  -26.6558   15.1610 C   0  0  0  0  0  0  0  0  0  0  0  0
  -12.1187  -25.5347   14.1954 C   0  0  0  0  0  0  0  0  0  0  0  0
  -12.2041  -25.9532   12.7359 C   0  0  0  0  0  0  0  0  0  0  0  0
  -11.3585  -24.8990   12.0575 C   0  0  0  0  0  0  0  0  0  0  0  0
  -10.3001  -24.5920   12.9666 O   0  0  0  0  0  0  0  0  0  0  0  0
  -10.6593  -25.0942   14.2651 C   0  0  0  0  0  0  0  0  0  0  0  0
  -17.2131  -25.3352   15.3825 H   0  0  0  0  0  0  0  0  0  0  0  0
  -17.5074  -26.8498   16.2611 H   0  0  0  0  0  0  0  0  0  0  0  0
  -18.3221  -25.3572   16.7631 H   0  0  0  0  0  0  0  0  0  0  0  0
  -16.4971  -25.8648   18.2931 H   0  0  0  0  0  0  0  0  0  0  0  0
  -16.1505  -24.3575   17.4049 H   0  0  0  0  0  0  0  0  0  0  0  0
  -14.9097  -25.8627   15.7516 H   0  0  0  0  0  0  0  0  0  0  0  0
  -14.9691  -27.1345   16.9782 H   0  0  0  0  0  0  0  0  0  0  0  0
  -14.4159  -26.0082   19.3482 H   0  0  0  0  0  0  0  0  0  0  0  0
  -12.8272  -26.4523   19.0357 H   0  0  0  0  0  0  0  0  0  0  0  0
  -13.0595  -25.0453   20.6160 H   0  0  0  0  0  0  0  0  0  0  0  0
  -11.8127  -24.7447   19.9986 H   0  0  0  0  0  0  0  0  0  0  0  0
  -11.2904  -22.9752   21.2924 H   0  0  0  0  0  0  0  0  0  0  0  0
  -13.6809  -23.8603   24.6091 H   0  0  0  0  0  0  0  0  0  0  0  0
  -12.0081  -21.4770   27.2288 H   0  0  0  0  0  0  0  0  0  0  0  0
  -13.0112  -20.4506   24.8221 H   0  0  0  0  0  0  0  0  0  0  0  0
  -11.5627  -25.9530   16.9534 H   0  0  0  0  0  0  0  0  0  0  0  0
  -12.5757  -27.3539   17.1633 H   0  0  0  0  0  0  0  0  0  0  0  0
  -13.4679  -27.0871   14.8474 H   0  0  0  0  0  0  0  0  0  0  0  0
  -11.7912  -27.4766   15.0242 H   0  0  0  0  0  0  0  0  0  0  0  0
  -12.7902  -24.6796   14.3189 H   0  0  0  0  0  0  0  0  0  0  0  0
  -13.2275  -25.9836   12.3511 H   0  0  0  0  0  0  0  0  0  0  0  0
  -11.7537  -26.9430   12.5915 H   0  0  0  0  0  0  0  0  0  0  0  0
  -10.9438  -25.2392   11.1048 H   0  0  0  0  0  0  0  0  0  0  0  0
  -11.9324  -23.9836   11.8847 H   0  0  0  0  0  0  0  0  0  0  0  0
  -10.4804  -24.3086   14.9972 H   0  0  0  0  0  0  0  0  0  0  0  0
   -9.9895  -25.9313   14.4905 H   0  0  0  0  0  0  0  0  0  0  0  0
  1  2  1  0
  2  3  1  0
  3  4  1  0
  4  5  1  0
  5  6  1  0
  6  7  1  0
  7  8  1  0
  8  9  2  0
  8 10  1  0
 10 11  2  0
 11 12  1  0
 12 13  2  0
 13 14  1  0
 14 15  2  0
  4 16  1  0
 16 17  1  0
 17 18  1  0
 18 19  1  0
 19 20  1  0
 20 21  1  0
 21 22  1  0
 15 10  1  0
 22 18  1  0
  1 23  1  0
  1 24  1  0
  1 25  1  0
  2 26  1  0
  2 27  1  0
  3 28  1  0
  3 29  1  0
  5 30  1  0
  5 31  1  0
  6 32  1  0
  6 33  1  0
  7 34  1  0
 11 35  1  0
 13 36  1  0
 14 37  1  0
 16 38  1  0
 16 39  1  0
 17 40  1  0
 17 41  1  0
 18 42  1  0
 19 43  1  0
 19 44  1  0
 20 45  1  0
 20 46  1  0
 22 47  1  0
 22 48  1  0
M  END
>  <Energy>  (813) 
403.05619977345231

>  <compound_id>  (813) 
92083

>  <target_id>  (813) 
1

>  <reference_id>  (813) 
28

>  <inspiration_ids>  (813) 
[28, 54]

>  <energy_score>  (813) 
239.3467010737478

>  <distance_score>  (813) 
4.453644474619775

>  <path>  (813) 
/opt/xchem-fragalysis-2/maxwin/BulkDock/SCRATCH/511025/C92083-P28/C92083-P28.minimised.mol

>  <scratch_subdir>  (813) 
/opt/xchem-fragalysis-2/maxwin/BulkDock/SCRATCH/511025/C92083-P28

>  <fragmenstein_runtime>  (813) 
18.292752265930176

>  <fragmenstein_outcome>  (813) 
too moved

>  <fragmenstein_mode>  (813) 
expansion

>  <fragmenstein_error>  (813) 


$$$$
C92083-P54
     RDKit          3D

 48 49  0  0  0  0  0  0  0  0999 V2000
  -15.9368  -26.4166   15.7362 C   0  0  0  0  0  0  0  0  0  0  0  0
  -16.1041  -26.6432   17.2315 C   0  0  0  0  0  0  0  0  0  0  0  0
  -14.8361  -27.1608   17.9297 C   0  0  0  0  0  0  0  0  0  0  0  0
  -13.6745  -26.2845   17.7828 N   0  0  0  0  0  0  0  0  0  0  0  0
  -13.7028  -24.9968   18.5646 C   0  0  0  0  0  0  0  0  0  0  0  0
  -12.9858  -24.5877   20.1308 C   0  0  0  0  0  0  0  0  0  0  0  0
  -12.4869  -23.1263   20.9103 N   0  0  0  0  0  0  0  0  0  0  0  0
  -12.8107  -22.5798   22.2977 C   0  0  0  0  0  0  0  0  0  0  0  0
  -13.5652  -23.0007   23.1497 O   0  0  0  0  0  0  0  0  0  0  0  0
  -12.0339  -21.3837   22.8391 C   0  0  0  0  0  0  0  0  0  0  0  0
  -12.3767  -21.4182   24.2027 C   0  0  0  0  0  0  0  0  0  0  0  0
  -11.7296  -22.2173   25.0902 N   0  0  0  0  0  0  0  0  0  0  0  0
  -10.5506  -22.6174   24.6333 C   0  0  0  0  0  0  0  0  0  0  0  0
  -10.0207  -22.0674   23.4492 C   0  0  0  0  0  0  0  0  0  0  0  0
  -10.7460  -21.4125   22.5173 N   0  0  0  0  0  0  0  0  0  0  0  0
  -12.4494  -26.9660   17.3278 C   0  0  0  0  0  0  0  0  0  0  0  0
  -12.4779  -27.6471   15.9209 C   0  0  0  0  0  0  0  0  0  0  0  0
  -12.1227  -26.7624   14.7158 C   0  0  0  0  0  0  0  0  0  0  0  0
  -12.2822  -27.4576   13.3750 C   0  0  0  0  0  0  0  0  0  0  0  0
  -11.4657  -26.5681   12.4601 C   0  0  0  0  0  0  0  0  0  0  0  0
  -10.3848  -26.0624   13.2451 O   0  0  0  0  0  0  0  0  0  0  0  0
  -10.6547  -26.3511   14.6248 C   0  0  0  0  0  0  0  0  0  0  0  0
  -15.1888  -25.6457   15.5287 H   0  0  0  0  0  0  0  0  0  0  0  0
  -16.8846  -26.0850   15.2997 H   0  0  0  0  0  0  0  0  0  0  0  0
  -15.6403  -27.3391   15.2286 H   0  0  0  0  0  0  0  0  0  0  0  0
  -16.4527  -25.7123   17.6883 H   0  0  0  0  0  0  0  0  0  0  0  0
  -16.9050  -27.3765   17.3865 H   0  0  0  0  0  0  0  0  0  0  0  0
  -14.6319  -28.1636   17.5359 H   0  0  0  0  0  0  0  0  0  0  0  0
  -15.0465  -27.3309   18.9877 H   0  0  0  0  0  0  0  0  0  0  0  0
  -14.7384  -24.6932   18.5265 H   0  0  0  0  0  0  0  0  0  0  0  0
  -13.3900  -24.2635   17.8650 H   0  0  0  0  0  0  0  0  0  0  0  0
  -13.5394  -25.1361   20.8949 H   0  0  0  0  0  0  0  0  0  0  0  0
  -12.0251  -24.9779   20.1878 H   0  0  0  0  0  0  0  0  0  0  0  0
  -11.8716  -22.4745   20.4307 H   0  0  0  0  0  0  0  0  0  0  0  0
  -13.4151  -21.2382   24.4642 H   0  0  0  0  0  0  0  0  0  0  0  0
   -9.9867  -23.2521   25.2972 H   0  0  0  0  0  0  0  0  0  0  0  0
   -8.9698  -22.1891   23.2114 H   0  0  0  0  0  0  0  0  0  0  0  0
  -12.2162  -27.7383   18.0725 H   0  0  0  0  0  0  0  0  0  0  0  0
  -11.5754  -26.3269   17.3023 H   0  0  0  0  0  0  0  0  0  0  0  0
  -13.4487  -28.1189   15.7429 H   0  0  0  0  0  0  0  0  0  0  0  0
  -11.7610  -28.4792   15.9553 H   0  0  0  0  0  0  0  0  0  0  0  0
  -12.7750  -25.8836   14.6921 H   0  0  0  0  0  0  0  0  0  0  0  0
  -13.3233  -27.5494   13.0525 H   0  0  0  0  0  0  0  0  0  0  0  0
  -11.8444  -28.4628   13.4083 H   0  0  0  0  0  0  0  0  0  0  0  0
  -11.0750  -27.1054   11.5915 H   0  0  0  0  0  0  0  0  0  0  0  0
  -12.0534  -25.7155   12.1084 H   0  0  0  0  0  0  0  0  0  0  0  0
  -10.4075  -25.4706   15.2143 H   0  0  0  0  0  0  0  0  0  0  0  0
   -9.9847  -27.1630   14.9294 H   0  0  0  0  0  0  0  0  0  0  0  0
  1  2  1  0
  2  3  1  0
  3  4  1  0
  4  5  1  0
  5  6  1  0
  6  7  1  0
  7  8  1  0
  8  9  2  0
  8 10  1  0
 10 11  2  0
 11 12  1  0
 12 13  2  0
 13 14  1  0
 14 15  2  0
  4 16  1  0
 16 17  1  0
 17 18  1  0
 18 19  1  0
 19 20  1  0
 20 21  1  0
 21 22  1  0
 15 10  1  0
 22 18  1  0
  1 23  1  0
  1 24  1  0
  1 25  1  0
  2 26  1  0
  2 27  1  0
  3 28  1  0
  3 29  1  0
  5 30  1  0
  5 31  1  0
  6 32  1  0
  6 33  1  0
  7 34  1  0
 11 35  1  0
 13 36  1  0
 14 37  1  0
 16 38  1  0
 16 39  1  0
 17 40  1  0
 17 41  1  0
 18 42  1  0
 19 43  1  0
 19 44  1  0
 20 45  1  0
 20 46  1  0
 22 47  1  0
 22 48  1  0
M  END
>  <Energy>  (814) 
263.55621496324022

>  <compound_id>  (814) 
92083

>  <target_id>  (814) 
1

>  <reference_id>  (814) 
54

>  <inspiration_ids>  (814) 
[28, 54]

>  <energy_score>  (814) 
99.84671626353787

>  <distance_score>  (814) 
5.399746755998904

>  <path>  (814) 
/opt/xchem-fragalysis-2/maxwin/BulkDock/SCRATCH/511025/C92083-P54/C92083-P54.minimised.mol

>  <scratch_subdir>  (814) 
/opt/xchem-fragalysis-2/maxwin/BulkDock/SCRATCH/511025/C92083-P54

>  <fragmenstein_runtime>  (814) 
15.482139348983765

>  <fragmenstein_outcome>  (814) 
too moved

>  <fragmenstein_mode>  (814) 
expansion

>  <fragmenstein_error>  (814) 


$$$$
C92084-P28
     RDKit          3D

 46 47  0  0  0  0  0  0  0  0999 V2000
  -12.4796  -23.8575   12.4851 C   0  0  0  0  0  0  0  0  0  0  0  0
  -11.8253  -23.2963   13.6074 O   0  0  0  0  0  0  0  0  0  0  0  0
  -10.9740  -22.1689   13.3474 C   0  0  0  0  0  0  0  0  0  0  0  0
  -10.0056  -21.5941   14.4800 C   0  0  0  0  0  0  0  0  0  0  0  0
   -9.5212  -22.1160   15.9090 C   0  0  0  0  0  0  0  0  0  0  0  0
   -9.0413  -21.0607   17.6677 C   0  0  0  0  0  0  0  0  0  0  0  0
   -9.2766  -20.9721   19.6531 N   0  0  0  0  0  0  0  0  0  0  0  0
  -10.5808  -21.5414   20.6751 C   0  0  0  0  0  0  0  0  0  0  0  0
  -11.6483  -22.0353   20.3384 O   0  0  0  0  0  0  0  0  0  0  0  0
  -10.4362  -21.5911   22.3832 C   0  0  0  0  0  0  0  0  0  0  0  0
  -11.7489  -20.9693   22.6335 C   0  0  0  0  0  0  0  0  0  0  0  0
  -12.1797  -21.0018   24.0498 C   0  0  0  0  0  0  0  0  0  0  0  0
  -12.0054  -22.4206   24.1698 C   0  0  0  0  0  0  0  0  0  0  0  0
  -10.7255  -22.5520   23.4637 O   0  0  0  0  0  0  0  0  0  0  0  0
  -10.0302  -23.6447   15.5048 N   0  0  0  0  0  0  0  0  0  0  0  0
   -9.8147  -24.4550   14.2691 C   0  0  0  0  0  0  0  0  0  0  0  0
   -9.1497  -24.2309   13.2886 O   0  0  0  0  0  0  0  0  0  0  0  0
  -10.5302  -25.7963   14.4484 C   0  0  0  0  0  0  0  0  0  0  0  0
  -10.3586  -26.6966   13.3161 N   0  0  0  0  0  0  0  0  0  0  0  0
  -11.1316  -26.6005   12.2018 N   0  0  0  0  0  0  0  0  0  0  0  0
  -10.7527  -27.6763   11.5094 C   0  0  0  0  0  0  0  0  0  0  0  0
   -9.8642  -28.4391   12.2713 C   0  0  0  0  0  0  0  0  0  0  0  0
   -9.6594  -27.8551   13.4554 N   0  0  0  0  0  0  0  0  0  0  0  0
  -13.3603  -23.2809   12.2292 H   0  0  0  0  0  0  0  0  0  0  0  0
  -11.8065  -23.9683   11.6316 H   0  0  0  0  0  0  0  0  0  0  0  0
  -12.8664  -24.8372   12.7731 H   0  0  0  0  0  0  0  0  0  0  0  0
  -11.6223  -21.3337   13.1419 H   0  0  0  0  0  0  0  0  0  0  0  0
  -10.3967  -22.3436   12.4298 H   0  0  0  0  0  0  0  0  0  0  0  0
  -10.2551  -20.5436   14.5475 H   0  0  0  0  0  0  0  0  0  0  0  0
   -9.0949  -21.8221   13.9066 H   0  0  0  0  0  0  0  0  0  0  0  0
   -8.5038  -22.4037   15.5863 H   0  0  0  0  0  0  0  0  0  0  0  0
   -9.5850  -21.8689   17.9148 H   0  0  0  0  0  0  0  0  0  0  0  0
   -9.3522  -20.0590   17.4698 H   0  0  0  0  0  0  0  0  0  0  0  0
   -8.5696  -20.5386   20.2218 H   0  0  0  0  0  0  0  0  0  0  0  0
   -9.4867  -21.1623   22.6127 H   0  0  0  0  0  0  0  0  0  0  0  0
  -11.7612  -20.1133   22.0398 H   0  0  0  0  0  0  0  0  0  0  0  0
  -12.4913  -21.6158   22.1679 H   0  0  0  0  0  0  0  0  0  0  0  0
  -13.1904  -20.7647   24.3286 H   0  0  0  0  0  0  0  0  0  0  0  0
  -11.5014  -20.4927   24.6696 H   0  0  0  0  0  0  0  0  0  0  0  0
  -12.8449  -22.9096   23.6622 H   0  0  0  0  0  0  0  0  0  0  0  0
  -11.9910  -22.8053   25.1970 H   0  0  0  0  0  0  0  0  0  0  0  0
  -10.7069  -24.0922   16.0715 H   0  0  0  0  0  0  0  0  0  0  0  0
  -11.6034  -25.6621   14.6054 H   0  0  0  0  0  0  0  0  0  0  0  0
  -10.1120  -26.3000   15.3276 H   0  0  0  0  0  0  0  0  0  0  0  0
  -11.1470  -27.8542   10.5193 H   0  0  0  0  0  0  0  0  0  0  0  0
   -9.3768  -29.3743   12.0365 H   0  0  0  0  0  0  0  0  0  0  0  0
  1  2  1  0
  2  3  1  0
  3  4  1  0
  4  5  1  0
  5  6  1  0
  6  7  1  0
  7  8  1  0
  8  9  2  0
  8 10  1  0
 10 11  1  0
 11 12  1  0
 12 13  1  0
 13 14  1  0
  5 15  1  0
 15 16  1  0
 16 17  2  0
 16 18  1  0
 18 19  1  0
 19 20  1  0
 20 21  2  0
 21 22  1  0
 22 23  2  0
 14 10  1  0
 23 19  1  0
  1 24  1  0
  1 25  1  0
  1 26  1  0
  3 27  1  0
  3 28  1  0
  4 29  1  0
  4 30  1  0
  5 31  1  0
  6 32  1  0
  6 33  1  0
  7 34  1  0
 10 35  1  0
 11 36  1  0
 11 37  1  0
 12 38  1  0
 12 39  1  0
 13 40  1  0
 13 41  1  0
 15 42  1  0
 18 43  1  0
 18 44  1  0
 21 45  1  0
 22 46  1  0
M  END
>  <Energy>  (815) 
499.21932113741519

>  <compound_id>  (815) 
92084

>  <target_id>  (815) 
1

>  <reference_id>  (815) 
28

>  <inspiration_ids>  (815) 
[28, 54]

>  <energy_score>  (815) 
413.59100752457255

>  <distance_score>  (815) 
6.573590825090023

>  <path>  (815) 
/opt/xchem-fragalysis-2/maxwin/BulkDock/SCRATCH/511025/C92084-P28/C92084-P28.minimised.mol

>  <scratch_subdir>  (815) 
/opt/xchem-fragalysis-2/maxwin/BulkDock/SCRATCH/511025/C92084-P28

>  <fragmenstein_runtime>  (815) 
38.84509038925171

>  <fragmenstein_outcome>  (815) 
too moved

>  <fragmenstein_mode>  (815) 
expansion

>  <fragmenstein_error>  (815) 


$$$$
C92084-P54
     RDKit          3D

 46 47  0  0  0  0  0  0  0  0999 V2000
  -10.3747  -25.0306   11.6517 C   0  0  0  0  0  0  0  0  0  0  0  0
   -9.3412  -24.7904   12.5992 O   0  0  0  0  0  0  0  0  0  0  0  0
   -9.1949  -23.3904   12.8950 C   0  0  0  0  0  0  0  0  0  0  0  0
  -10.0731  -22.8890   14.0872 C   0  0  0  0  0  0  0  0  0  0  0  0
   -9.6721  -22.9409   15.8721 C   0  0  0  0  0  0  0  0  0  0  0  0
   -9.2358  -21.5085   17.3438 C   0  0  0  0  0  0  0  0  0  0  0  0
   -9.3160  -20.9991   19.2439 N   0  0  0  0  0  0  0  0  0  0  0  0
  -10.3233  -21.5604   20.5191 C   0  0  0  0  0  0  0  0  0  0  0  0
  -11.2622  -22.3328   20.4914 O   0  0  0  0  0  0  0  0  0  0  0  0
   -9.9718  -21.1411   22.1374 C   0  0  0  0  0  0  0  0  0  0  0  0
  -11.2585  -20.6088   22.7035 C   0  0  0  0  0  0  0  0  0  0  0  0
  -11.9680  -21.7183   23.4210 C   0  0  0  0  0  0  0  0  0  0  0  0
  -10.8022  -22.3234   24.0866 C   0  0  0  0  0  0  0  0  0  0  0  0
   -9.6462  -21.9821   23.2933 O   0  0  0  0  0  0  0  0  0  0  0  0
   -9.6038  -24.6307   15.3029 N   0  0  0  0  0  0  0  0  0  0  0  0
  -10.3923  -25.8729   15.7232 C   0  0  0  0  0  0  0  0  0  0  0  0
  -11.2045  -26.0312   16.6110 O   0  0  0  0  0  0  0  0  0  0  0  0
  -10.0147  -27.0454   14.8291 C   0  0  0  0  0  0  0  0  0  0  0  0
  -11.0633  -27.4789   13.9170 N   0  0  0  0  0  0  0  0  0  0  0  0
  -10.8263  -28.5273   13.0813 N   0  0  0  0  0  0  0  0  0  0  0  0
  -11.9773  -28.6092   12.4095 C   0  0  0  0  0  0  0  0  0  0  0  0
  -12.8503  -27.6067   12.8391 C   0  0  0  0  0  0  0  0  0  0  0  0
  -12.2629  -26.8655   13.7813 N   0  0  0  0  0  0  0  0  0  0  0  0
  -10.2238  -24.4442   10.7413 H   0  0  0  0  0  0  0  0  0  0  0  0
  -10.3475  -26.0867   11.3752 H   0  0  0  0  0  0  0  0  0  0  0  0
  -11.3486  -24.8012   12.0857 H   0  0  0  0  0  0  0  0  0  0  0  0
   -9.4448  -22.8242   11.9887 H   0  0  0  0  0  0  0  0  0  0  0  0
   -8.1390  -23.2372   13.1082 H   0  0  0  0  0  0  0  0  0  0  0  0
  -10.6833  -22.0439   13.8158 H   0  0  0  0  0  0  0  0  0  0  0  0
  -10.9028  -23.6144   13.9892 H   0  0  0  0  0  0  0  0  0  0  0  0
  -10.5070  -22.3641   15.7474 H   0  0  0  0  0  0  0  0  0  0  0  0
   -9.6866  -22.2444   17.8739 H   0  0  0  0  0  0  0  0  0  0  0  0
   -9.6181  -20.5812   16.9859 H   0  0  0  0  0  0  0  0  0  0  0  0
   -8.6808  -20.2910   19.5947 H   0  0  0  0  0  0  0  0  0  0  0  0
   -9.1130  -20.5165   22.1229 H   0  0  0  0  0  0  0  0  0  0  0  0
  -11.0483  -19.8370   23.4363 H   0  0  0  0  0  0  0  0  0  0  0  0
  -11.8448  -20.2621   21.8862 H   0  0  0  0  0  0  0  0  0  0  0  0
  -12.4567  -22.3697   22.7081 H   0  0  0  0  0  0  0  0  0  0  0  0
  -12.7327  -21.3718   24.1163 H   0  0  0  0  0  0  0  0  0  0  0  0
  -10.7075  -23.3505   24.3443 H   0  0  0  0  0  0  0  0  0  0  0  0
  -10.8622  -22.0721   25.1438 H   0  0  0  0  0  0  0  0  0  0  0  0
   -9.0897  -24.8333   14.4821 H   0  0  0  0  0  0  0  0  0  0  0  0
   -9.1372  -26.8487   14.2143 H   0  0  0  0  0  0  0  0  0  0  0  0
   -9.7816  -27.8992   15.4757 H   0  0  0  0  0  0  0  0  0  0  0  0
  -12.1161  -29.3770   11.6620 H   0  0  0  0  0  0  0  0  0  0  0  0
  -13.8569  -27.3784   12.5199 H   0  0  0  0  0  0  0  0  0  0  0  0
  1  2  1  0
  2  3  1  0
  3  4  1  0
  4  5  1  0
  5  6  1  0
  6  7  1  0
  7  8  1  0
  8  9  2  0
  8 10  1  0
 10 11  1  0
 11 12  1  0
 12 13  1  0
 13 14  1  0
  5 15  1  0
 15 16  1  0
 16 17  2  0
 16 18  1  0
 18 19  1  0
 19 20  1  0
 20 21  2  0
 21 22  1  0
 22 23  2  0
 14 10  1  0
 23 19  1  0
  1 24  1  0
  1 25  1  0
  1 26  1  0
  3 27  1  0
  3 28  1  0
  4 29  1  0
  4 30  1  0
  5 31  1  0
  6 32  1  0
  6 33  1  0
  7 34  1  0
 10 35  1  0
 11 36  1  0
 11 37  1  0
 12 38  1  0
 12 39  1  0
 13 40  1  0
 13 41  1  0
 15 42  1  0
 18 43  1  0
 18 44  1  0
 21 45  1  0
 22 46  1  0
M  END
>  <Energy>  (816) 
543.14424286147687

>  <compound_id>  (816) 
92084

>  <target_id>  (816) 
1

>  <reference_id>  (816) 
54

>  <inspiration_ids>  (816) 
[28, 54]

>  <energy_score>  (816) 
457.51592924861853

>  <distance_score>  (816) 
6.715017989003477

>  <path>  (816) 
/opt/xchem-fragalysis-2/maxwin/BulkDock/SCRATCH/511025/C92084-P54/C92084-P54.minimised.mol

>  <scratch_subdir>  (816) 
/opt/xchem-fragalysis-2/maxwin/BulkDock/SCRATCH/511025/C92084-P54

>  <fragmenstein_runtime>  (816) 
41.70815587043762

>  <fragmenstein_outcome>  (816) 
too moved

>  <fragmenstein_mode>  (816) 
expansion

>  <fragmenstein_error>  (816) 


$$$$
C43789-P28
     RDKit          3D

 46 48  0  0  0  0  0  0  0  0999 V2000
   -8.1317  -28.3822   22.5503 O   0  0  0  0  0  0  0  0  0  0  0  0
   -6.9992  -28.0662   22.5201 C   0  0  0  0  0  0  0  0  0  0  0  0
   -5.9603  -28.4680   23.8060 N   0  0  0  0  0  0  0  0  0  0  0  0
   -6.1902  -29.3442   25.1229 C   0  0  0  0  0  0  0  0  0  0  0  0
   -6.6206  -28.8982   26.6805 C   0  0  0  0  0  0  0  0  0  0  0  0
   -8.0406  -29.0653   27.7235 C   0  0  0  0  0  0  0  0  0  0  0  0
   -9.5464  -28.9043   27.4959 O   0  0  0  0  0  0  0  0  0  0  0  0
  -10.5421  -27.9106   27.2245 C   0  0  0  0  0  0  0  0  0  0  0  0
  -10.3457  -26.6038   27.2165 N   0  0  0  0  0  0  0  0  0  0  0  0
  -11.1979  -25.7394   26.6108 C   0  0  0  0  0  0  0  0  0  0  0  0
  -12.4409  -26.1138   26.2150 C   0  0  0  0  0  0  0  0  0  0  0  0
  -12.6427  -27.4529   26.3184 C   0  0  0  0  0  0  0  0  0  0  0  0
  -11.6970  -28.3284   26.7416 N   0  0  0  0  0  0  0  0  0  0  0  0
   -6.5658  -27.1811   20.6571 C   0  0  0  0  0  0  0  0  0  0  0  0
   -7.9996  -25.5293   20.1385 C   0  0  0  0  0  0  0  0  0  0  0  0
   -7.5424  -24.6389   18.3476 C   0  0  0  0  0  0  0  0  0  0  0  0
   -8.8182  -25.7117   16.8703 C   0  0  0  0  0  0  0  0  0  0  0  0
  -10.1904  -26.7823   17.9714 C   0  0  0  0  0  0  0  0  0  0  0  0
   -9.8460  -26.6092   20.0163 O   0  0  0  0  0  0  0  0  0  0  0  0
   -5.2579  -26.7890   20.8433 C   0  0  0  0  0  0  0  0  0  0  0  0
   -4.8494  -28.0829   20.6174 C   0  0  0  0  0  0  0  0  0  0  0  0
   -5.7100  -29.0348   19.6569 C   0  0  0  0  0  0  0  0  0  0  0  0
   -5.9641  -27.8166   19.0792 O   0  0  0  0  0  0  0  0  0  0  0  0
   -5.0804  -28.0500   23.6366 H   0  0  0  0  0  0  0  0  0  0  0  0
   -6.8788  -30.1176   24.8231 H   0  0  0  0  0  0  0  0  0  0  0  0
   -5.2205  -29.8424   25.2397 H   0  0  0  0  0  0  0  0  0  0  0  0
   -6.0877  -27.9742   26.9175 H   0  0  0  0  0  0  0  0  0  0  0  0
   -5.9861  -29.6115   27.2390 H   0  0  0  0  0  0  0  0  0  0  0  0
   -7.9852  -30.1395   27.9652 H   0  0  0  0  0  0  0  0  0  0  0  0
   -7.7913  -28.6418   28.7032 H   0  0  0  0  0  0  0  0  0  0  0  0
  -10.8696  -24.7030   26.6012 H   0  0  0  0  0  0  0  0  0  0  0  0
  -13.1826  -25.4159   25.8607 H   0  0  0  0  0  0  0  0  0  0  0  0
  -13.5884  -27.9103   26.0419 H   0  0  0  0  0  0  0  0  0  0  0  0
   -8.4368  -24.7913   20.8333 H   0  0  0  0  0  0  0  0  0  0  0  0
   -6.9182  -23.8298   18.0388 H   0  0  0  0  0  0  0  0  0  0  0  0
   -6.5222  -25.1745   18.5110 H   0  0  0  0  0  0  0  0  0  0  0  0
   -9.2292  -25.2909   15.9012 H   0  0  0  0  0  0  0  0  0  0  0  0
   -8.2989  -26.5916   16.3454 H   0  0  0  0  0  0  0  0  0  0  0  0
  -11.2328  -26.4336   17.8840 H   0  0  0  0  0  0  0  0  0  0  0  0
   -9.9967  -27.7969   17.5576 H   0  0  0  0  0  0  0  0  0  0  0  0
   -5.5788  -26.1960   20.0173 H   0  0  0  0  0  0  0  0  0  0  0  0
   -4.9297  -26.1168   21.6540 H   0  0  0  0  0  0  0  0  0  0  0  0
   -3.7888  -28.1249   20.7544 H   0  0  0  0  0  0  0  0  0  0  0  0
   -5.1825  -28.1228   21.6302 H   0  0  0  0  0  0  0  0  0  0  0  0
   -5.3755  -29.8848   19.0550 H   0  0  0  0  0  0  0  0  0  0  0  0
   -6.7010  -29.4879   19.7420 H   0  0  0  0  0  0  0  0  0  0  0  0
  1  2  2  0
  2  3  1  0
  3  4  1  0
  4  5  1  0
  5  6  1  0
  6  7  1  0
  7  8  1  0
  8  9  2  0
  9 10  1  0
 10 11  2  0
 11 12  1  0
 12 13  2  0
  2 14  1  0
 14 15  1  0
 15 16  1  0
 16 17  1  0
 17 18  1  0
 18 19  1  0
 14 20  1  0
 20 21  1  0
 21 22  1  0
 22 23  1  0
 13  8  1  0
 23 14  1  0
 19 15  1  0
  3 24  1  0
  4 25  1  0
  4 26  1  0
  5 27  1  0
  5 28  1  0
  6 29  1  0
  6 30  1  0
 10 31  1  0
 11 32  1  0
 12 33  1  0
 15 34  1  0
 16 35  1  0
 16 36  1  0
 17 37  1  0
 17 38  1  0
 18 39  1  0
 18 40  1  0
 20 41  1  0
 20 42  1  0
 21 43  1  0
 21 44  1  0
 22 45  1  0
 22 46  1  0
M  END
>  <Energy>  (817) 
1136.9103103239077

>  <compound_id>  (817) 
43789

>  <target_id>  (817) 
1

>  <reference_id>  (817) 
28

>  <inspiration_ids>  (817) 
[28, 54]

>  <energy_score>  (817) 
1071.8220926075635

>  <distance_score>  (817) 
7.16190120506074

>  <path>  (817) 
/opt/xchem-fragalysis-2/maxwin/BulkDock/SCRATCH/511025/C43789-P28/C43789-P28.minimised.mol

>  <scratch_subdir>  (817) 
/opt/xchem-fragalysis-2/maxwin/BulkDock/SCRATCH/511025/C43789-P28

>  <fragmenstein_runtime>  (817) 
24.428595542907715

>  <fragmenstein_outcome>  (817) 
too moved

>  <fragmenstein_mode>  (817) 
expansion

>  <fragmenstein_error>  (817) 


$$$$
C43789-P54
     RDKit          3D

 46 48  0  0  0  0  0  0  0  0999 V2000
  -10.0145  -24.9953   25.4157 O   0  0  0  0  0  0  0  0  0  0  0  0
   -9.9236  -23.7999   25.4805 C   0  0  0  0  0  0  0  0  0  0  0  0
  -10.4380  -22.8872   26.4452 N   0  0  0  0  0  0  0  0  0  0  0  0
  -11.1333  -23.1103   27.6723 C   0  0  0  0  0  0  0  0  0  0  0  0
  -10.4170  -22.5107   28.8818 C   0  0  0  0  0  0  0  0  0  0  0  0
  -11.1083  -22.8284   30.2090 C   0  0  0  0  0  0  0  0  0  0  0  0
  -10.9163  -24.1911   30.5888 O   0  0  0  0  0  0  0  0  0  0  0  0
  -11.8010  -25.0890   30.0388 C   0  0  0  0  0  0  0  0  0  0  0  0
  -12.8667  -24.6519   29.3405 N   0  0  0  0  0  0  0  0  0  0  0  0
  -13.6497  -25.5925   28.7844 C   0  0  0  0  0  0  0  0  0  0  0  0
  -13.4128  -26.9371   28.9158 C   0  0  0  0  0  0  0  0  0  0  0  0
  -12.3173  -27.2749   29.6748 C   0  0  0  0  0  0  0  0  0  0  0  0
  -11.5055  -26.3736   30.2541 N   0  0  0  0  0  0  0  0  0  0  0  0
   -8.7819  -22.9839   24.1251 C   0  0  0  0  0  0  0  0  0  0  0  0
   -9.8996  -22.0657   23.4264 C   0  0  0  0  0  0  0  0  0  0  0  0
   -9.9766  -21.5792   21.9985 C   0  0  0  0  0  0  0  0  0  0  0  0
  -11.4280  -21.5075   21.7629 C   0  0  0  0  0  0  0  0  0  0  0  0
  -12.0598  -21.6253   23.1426 C   0  0  0  0  0  0  0  0  0  0  0  0
  -11.1905  -22.3952   23.8934 O   0  0  0  0  0  0  0  0  0  0  0  0
   -7.3093  -22.3785   24.4461 C   0  0  0  0  0  0  0  0  0  0  0  0
   -5.9238  -22.6466   23.9644 C   0  0  0  0  0  0  0  0  0  0  0  0
   -6.2734  -23.4119   22.8550 C   0  0  0  0  0  0  0  0  0  0  0  0
   -8.0812  -23.1285   22.9198 O   0  0  0  0  0  0  0  0  0  0  0  0
  -10.2497  -21.9810   26.1527 H   0  0  0  0  0  0  0  0  0  0  0  0
  -12.1357  -22.6919   27.5598 H   0  0  0  0  0  0  0  0  0  0  0  0
  -11.1913  -24.1946   27.7441 H   0  0  0  0  0  0  0  0  0  0  0  0
  -10.3643  -21.4230   28.7541 H   0  0  0  0  0  0  0  0  0  0  0  0
   -9.3875  -22.8886   28.9074 H   0  0  0  0  0  0  0  0  0  0  0  0
  -12.1608  -22.5229   30.2074 H   0  0  0  0  0  0  0  0  0  0  0  0
  -10.6266  -22.2306   30.9916 H   0  0  0  0  0  0  0  0  0  0  0  0
  -14.5009  -25.2200   28.2209 H   0  0  0  0  0  0  0  0  0  0  0  0
  -14.0544  -27.6826   28.4678 H   0  0  0  0  0  0  0  0  0  0  0  0
  -12.0510  -28.3138   29.8493 H   0  0  0  0  0  0  0  0  0  0  0  0
   -9.8130  -21.0776   23.7476 H   0  0  0  0  0  0  0  0  0  0  0  0
   -9.4511  -20.6518   22.0365 H   0  0  0  0  0  0  0  0  0  0  0  0
   -9.5148  -22.0367   21.1460 H   0  0  0  0  0  0  0  0  0  0  0  0
  -11.7583  -22.3394   21.1371 H   0  0  0  0  0  0  0  0  0  0  0  0
  -11.6407  -20.5841   21.2470 H   0  0  0  0  0  0  0  0  0  0  0  0
  -12.1696  -20.6462   23.6255 H   0  0  0  0  0  0  0  0  0  0  0  0
  -13.0148  -22.1589   23.1775 H   0  0  0  0  0  0  0  0  0  0  0  0
   -7.0581  -21.9566   25.4235 H   0  0  0  0  0  0  0  0  0  0  0  0
   -7.6163  -21.5892   23.7383 H   0  0  0  0  0  0  0  0  0  0  0  0
   -5.4587  -21.7839   23.5851 H   0  0  0  0  0  0  0  0  0  0  0  0
   -5.1707  -23.0738   24.5965 H   0  0  0  0  0  0  0  0  0  0  0  0
   -5.8510  -23.3019   21.8659 H   0  0  0  0  0  0  0  0  0  0  0  0
   -5.9089  -24.4190   23.0800 H   0  0  0  0  0  0  0  0  0  0  0  0
  1  2  2  0
  2  3  1  0
  3  4  1  0
  4  5  1  0
  5  6  1  0
  6  7  1  0
  7  8  1  0
  8  9  2  0
  9 10  1  0
 10 11  2  0
 11 12  1  0
 12 13  2  0
  2 14  1  0
 14 15  1  0
 15 16  1  0
 16 17  1  0
 17 18  1  0
 18 19  1  0
 14 20  1  0
 20 21  1  0
 21 22  1  0
 22 23  1  0
 13  8  1  0
 23 14  1  0
 19 15  1  0
  3 24  1  0
  4 25  1  0
  4 26  1  0
  5 27  1  0
  5 28  1  0
  6 29  1  0
  6 30  1  0
 10 31  1  0
 11 32  1  0
 12 33  1  0
 15 34  1  0
 16 35  1  0
 16 36  1  0
 17 37  1  0
 17 38  1  0
 18 39  1  0
 18 40  1  0
 20 41  1  0
 20 42  1  0
 21 43  1  0
 21 44  1  0
 22 45  1  0
 22 46  1  0
M  END
>  <Energy>  (818) 
263.32426455484739

>  <compound_id>  (818) 
43789

>  <target_id>  (818) 
1

>  <reference_id>  (818) 
54

>  <inspiration_ids>  (818) 
[28, 54]

>  <energy_score>  (818) 
198.23604683850772

>  <distance_score>  (818) 
6.962002720645845

>  <path>  (818) 
/opt/xchem-fragalysis-2/maxwin/BulkDock/SCRATCH/511025/C43789-P54/C43789-P54.minimised.mol

>  <scratch_subdir>  (818) 
/opt/xchem-fragalysis-2/maxwin/BulkDock/SCRATCH/511025/C43789-P54

>  <fragmenstein_runtime>  (818) 
28.51816201210022

>  <fragmenstein_outcome>  (818) 
too moved

>  <fragmenstein_mode>  (818) 
expansion

>  <fragmenstein_error>  (818) 


$$$$
C43790-P28
     RDKit          3D

 45 47  0  0  0  0  0  0  0  0999 V2000
   -9.4993  -24.5851   25.4429 O   0  0  0  0  0  0  0  0  0  0  0  0
  -10.5924  -25.0225   25.6523 C   0  0  0  0  0  0  0  0  0  0  0  0
  -11.2565  -26.2384   25.1302 N   0  0  0  0  0  0  0  0  0  0  0  0
  -10.7344  -27.4130   23.9253 C   0  0  0  0  0  0  0  0  0  0  0  0
  -10.5966  -27.7802   21.7661 C   0  0  0  0  0  0  0  0  0  0  0  0
  -11.8187  -28.1003   19.9821 C   0  0  0  0  0  0  0  0  0  0  0  0
  -12.0609  -29.3742   19.2878 O   0  0  0  0  0  0  0  0  0  0  0  0
  -12.4843  -29.2112   17.9459 C   0  0  0  0  0  0  0  0  0  0  0  0
  -13.0501  -30.2933   17.3855 N   0  0  0  0  0  0  0  0  0  0  0  0
  -13.2639  -30.2327   16.0532 C   0  0  0  0  0  0  0  0  0  0  0  0
  -12.9245  -29.1566   15.2673 C   0  0  0  0  0  0  0  0  0  0  0  0
  -12.3498  -28.1046   15.9337 C   0  0  0  0  0  0  0  0  0  0  0  0
  -12.1213  -28.1088   17.2606 N   0  0  0  0  0  0  0  0  0  0  0  0
  -11.6326  -24.1709   26.5483 C   0  0  0  0  0  0  0  0  0  0  0  0
  -11.8051  -22.7867   27.3427 C   0  0  0  0  0  0  0  0  0  0  0  0
  -11.4413  -23.1504   28.7530 C   0  0  0  0  0  0  0  0  0  0  0  0
  -11.4987  -22.5145   30.2035 C   0  0  0  0  0  0  0  0  0  0  0  0
  -11.6898  -21.2590   30.0936 C   0  0  0  0  0  0  0  0  0  0  0  0
  -10.9593  -20.9853   31.1577 C   0  0  0  0  0  0  0  0  0  0  0  0
  -10.0564  -21.7595   32.3816 C   0  0  0  0  0  0  0  0  0  0  0  0
  -10.1305  -23.1659   32.6060 C   0  0  0  0  0  0  0  0  0  0  0  0
  -11.1041  -23.3609   31.7770 C   0  0  0  0  0  0  0  0  0  0  0  0
  -10.1962  -23.9082   28.3262 C   0  0  0  0  0  0  0  0  0  0  0  0
  -10.5822  -24.7606   27.3108 O   0  0  0  0  0  0  0  0  0  0  0  0
  -12.1604  -26.3471   25.5880 H   0  0  0  0  0  0  0  0  0  0  0  0
   -9.7723  -27.6669   24.5516 H   0  0  0  0  0  0  0  0  0  0  0  0
  -11.4717  -27.9403   24.6172 H   0  0  0  0  0  0  0  0  0  0  0  0
  -10.2675  -26.7648   21.4227 H   0  0  0  0  0  0  0  0  0  0  0  0
  -10.2611  -28.7820   21.7135 H   0  0  0  0  0  0  0  0  0  0  0  0
  -11.6982  -27.2663   19.2057 H   0  0  0  0  0  0  0  0  0  0  0  0
  -12.9182  -27.8866   20.0804 H   0  0  0  0  0  0  0  0  0  0  0  0
  -13.7267  -31.1159   15.6220 H   0  0  0  0  0  0  0  0  0  0  0  0
  -13.0977  -29.1393   14.2008 H   0  0  0  0  0  0  0  0  0  0  0  0
  -12.0359  -27.2054   15.4110 H   0  0  0  0  0  0  0  0  0  0  0  0
  -11.6511  -23.5379   25.6464 H   0  0  0  0  0  0  0  0  0  0  0  0
  -12.8260  -22.4498   27.2002 H   0  0  0  0  0  0  0  0  0  0  0  0
  -11.2259  -21.9343   27.0338 H   0  0  0  0  0  0  0  0  0  0  0  0
  -12.3564  -23.6926   28.8492 H   0  0  0  0  0  0  0  0  0  0  0  0
  -12.1775  -20.7160   29.3254 H   0  0  0  0  0  0  0  0  0  0  0  0
  -10.8624  -20.0261   31.6034 H   0  0  0  0  0  0  0  0  0  0  0  0
   -9.6462  -21.0371   33.0897 H   0  0  0  0  0  0  0  0  0  0  0  0
   -9.5125  -23.8904   33.0740 H   0  0  0  0  0  0  0  0  0  0  0  0
  -11.1358  -24.4074   32.0155 H   0  0  0  0  0  0  0  0  0  0  0  0
   -9.7851  -24.6192   29.0198 H   0  0  0  0  0  0  0  0  0  0  0  0
   -9.3774  -23.2876   27.9716 H   0  0  0  0  0  0  0  0  0  0  0  0
  1  2  2  0
  2  3  1  0
  3  4  1  0
  4  5  1  0
  5  6  1  0
  6  7  1  0
  7  8  1  0
  8  9  2  0
  9 10  1  0
 10 11  2  0
 11 12  1  0
 12 13  2  0
  2 14  1  0
 14 15  1  0
 15 16  1  0
 16 17  1  0
 17 18  2  0
 18 19  1  0
 19 20  2  0
 20 21  1  0
 21 22  2  0
 16 23  1  0
 23 24  1  0
 13  8  1  0
 24 14  1  0
 22 17  1  0
  3 25  1  0
  4 26  1  0
  4 27  1  0
  5 28  1  0
  5 29  1  0
  6 30  1  0
  6 31  1  0
 10 32  1  0
 11 33  1  0
 12 34  1  0
 14 35  1  0
 15 36  1  0
 15 37  1  0
 16 38  1  0
 18 39  1  0
 19 40  1  0
 20 41  1  0
 21 42  1  0
 22 43  1  0
 23 44  1  0
 23 45  1  0
M  END
>  <Energy>  (819) 
692.37168569554149

>  <compound_id>  (819) 
43790

>  <target_id>  (819) 
1

>  <reference_id>  (819) 
28

>  <inspiration_ids>  (819) 
[28, 54]

>  <energy_score>  (819) 
623.162430647697

>  <distance_score>  (819) 
4.268838793938629

>  <path>  (819) 
/opt/xchem-fragalysis-2/maxwin/BulkDock/SCRATCH/511025/C43790-P28/C43790-P28.minimised.mol

>  <scratch_subdir>  (819) 
/opt/xchem-fragalysis-2/maxwin/BulkDock/SCRATCH/511025/C43790-P28

>  <fragmenstein_runtime>  (819) 
16.93065619468689

>  <fragmenstein_outcome>  (819) 
too moved

>  <fragmenstein_mode>  (819) 
expansion

>  <fragmenstein_error>  (819) 


$$$$
C43790-P54
     RDKit          3D

 45 47  0  0  0  0  0  0  0  0999 V2000
   -9.2271  -26.8114   26.6215 O   0  0  0  0  0  0  0  0  0  0  0  0
  -10.2457  -26.3220   26.2279 C   0  0  0  0  0  0  0  0  0  0  0  0
  -10.9049  -26.4096   24.9192 N   0  0  0  0  0  0  0  0  0  0  0  0
  -10.5317  -27.2978   23.5727 C   0  0  0  0  0  0  0  0  0  0  0  0
  -10.3170  -27.6538   21.4869 C   0  0  0  0  0  0  0  0  0  0  0  0
  -11.2792  -27.9846   19.5997 C   0  0  0  0  0  0  0  0  0  0  0  0
  -11.3431  -29.3096   18.9301 O   0  0  0  0  0  0  0  0  0  0  0  0
  -11.5143  -29.2142   17.5416 C   0  0  0  0  0  0  0  0  0  0  0  0
  -11.2752  -30.3454   16.8596 N   0  0  0  0  0  0  0  0  0  0  0  0
  -11.3435  -30.2567   15.5156 C   0  0  0  0  0  0  0  0  0  0  0  0
  -11.6475  -29.0990   14.8405 C   0  0  0  0  0  0  0  0  0  0  0  0
  -11.9015  -28.0074   15.6339 C   0  0  0  0  0  0  0  0  0  0  0  0
  -11.8590  -28.0395   16.9806 N   0  0  0  0  0  0  0  0  0  0  0  0
  -11.0606  -25.3210   27.1198 C   0  0  0  0  0  0  0  0  0  0  0  0
  -10.2254  -24.3919   28.0028 C   0  0  0  0  0  0  0  0  0  0  0  0
  -11.2229  -24.0373   29.0939 C   0  0  0  0  0  0  0  0  0  0  0  0
  -10.6928  -23.3914   30.3514 C   0  0  0  0  0  0  0  0  0  0  0  0
  -11.2805  -22.2112   30.8307 C   0  0  0  0  0  0  0  0  0  0  0  0
  -10.8578  -21.6247   32.0287 C   0  0  0  0  0  0  0  0  0  0  0  0
   -9.8284  -22.1993   32.7657 C   0  0  0  0  0  0  0  0  0  0  0  0
   -9.2181  -23.3558   32.2982 C   0  0  0  0  0  0  0  0  0  0  0  0
   -9.6467  -23.9404   31.1007 C   0  0  0  0  0  0  0  0  0  0  0  0
  -11.9052  -25.3887   29.2849 C   0  0  0  0  0  0  0  0  0  0  0  0
  -11.9729  -26.0101   27.9850 O   0  0  0  0  0  0  0  0  0  0  0  0
  -11.7947  -25.9391   24.9670 H   0  0  0  0  0  0  0  0  0  0  0  0
  -11.4291  -27.7062   24.0377 H   0  0  0  0  0  0  0  0  0  0  0  0
   -9.5638  -27.7012   24.0750 H   0  0  0  0  0  0  0  0  0  0  0  0
  -10.0892  -26.5670   21.7213 H   0  0  0  0  0  0  0  0  0  0  0  0
   -9.7224  -27.1127   20.8261 H   0  0  0  0  0  0  0  0  0  0  0  0
  -10.7284  -27.3493   18.8849 H   0  0  0  0  0  0  0  0  0  0  0  0
  -12.3399  -27.6325   19.4575 H   0  0  0  0  0  0  0  0  0  0  0  0
  -11.1282  -31.1777   14.9817 H   0  0  0  0  0  0  0  0  0  0  0  0
  -11.6811  -29.0500   13.7617 H   0  0  0  0  0  0  0  0  0  0  0  0
  -12.1482  -27.0432   15.1996 H   0  0  0  0  0  0  0  0  0  0  0  0
  -11.6743  -24.6801   26.4748 H   0  0  0  0  0  0  0  0  0  0  0  0
   -9.3428  -24.9017   28.3976 H   0  0  0  0  0  0  0  0  0  0  0  0
   -9.8747  -23.5105   27.4566 H   0  0  0  0  0  0  0  0  0  0  0  0
  -11.9583  -23.3568   28.6390 H   0  0  0  0  0  0  0  0  0  0  0  0
  -12.0990  -21.7388   30.2933 H   0  0  0  0  0  0  0  0  0  0  0  0
  -11.3453  -20.7223   32.3914 H   0  0  0  0  0  0  0  0  0  0  0  0
   -9.5024  -21.7395   33.6934 H   0  0  0  0  0  0  0  0  0  0  0  0
   -8.4009  -23.8016   32.8609 H   0  0  0  0  0  0  0  0  0  0  0  0
   -9.1415  -24.8350   30.7635 H   0  0  0  0  0  0  0  0  0  0  0  0
  -12.9206  -25.2951   29.6750 H   0  0  0  0  0  0  0  0  0  0  0  0
  -11.3435  -26.0581   29.9455 H   0  0  0  0  0  0  0  0  0  0  0  0
  1  2  2  0
  2  3  1  0
  3  4  1  0
  4  5  1  0
  5  6  1  0
  6  7  1  0
  7  8  1  0
  8  9  2  0
  9 10  1  0
 10 11  2  0
 11 12  1  0
 12 13  2  0
  2 14  1  0
 14 15  1  0
 15 16  1  0
 16 17  1  0
 17 18  2  0
 18 19  1  0
 19 20  2  0
 20 21  1  0
 21 22  2  0
 16 23  1  0
 23 24  1  0
 13  8  1  0
 24 14  1  0
 22 17  1  0
  3 25  1  0
  4 26  1  0
  4 27  1  0
  5 28  1  0
  5 29  1  0
  6 30  1  0
  6 31  1  0
 10 32  1  0
 11 33  1  0
 12 34  1  0
 14 35  1  0
 15 36  1  0
 15 37  1  0
 16 38  1  0
 18 39  1  0
 19 40  1  0
 20 41  1  0
 21 42  1  0
 22 43  1  0
 23 44  1  0
 23 45  1  0
M  END
>  <Energy>  (820) 
413.28495670228989

>  <compound_id>  (820) 
43790

>  <target_id>  (820) 
1

>  <reference_id>  (820) 
54

>  <inspiration_ids>  (820) 
[28, 54]

>  <energy_score>  (820) 
344.075701654448

>  <distance_score>  (820) 
4.099425607701178

>  <path>  (820) 
/opt/xchem-fragalysis-2/maxwin/BulkDock/SCRATCH/511025/C43790-P54/C43790-P54.minimised.mol

>  <scratch_subdir>  (820) 
/opt/xchem-fragalysis-2/maxwin/BulkDock/SCRATCH/511025/C43790-P54

>  <fragmenstein_runtime>  (820) 
12.279424667358398

>  <fragmenstein_outcome>  (820) 
too moved

>  <fragmenstein_mode>  (820) 
expansion

>  <fragmenstein_error>  (820) 


$$$$
C43791-P28
     RDKit          3D

 48 50  0  0  0  0  0  0  0  0999 V2000
   -8.4148  -21.3193   33.5541 C   0  0  0  0  0  0  0  0  0  0  0  0
   -9.9991  -21.5325   32.2056 C   0  0  0  0  0  0  0  0  0  0  0  0
  -10.9635  -21.7093   30.3375 C   0  0  0  0  0  0  0  0  0  0  0  0
  -11.0228  -22.9398   28.8851 N   0  0  0  0  0  0  0  0  0  0  0  0
  -10.0478  -24.1400   27.9651 C   0  0  0  0  0  0  0  0  0  0  0  0
  -10.5961  -25.5740   26.7928 C   0  0  0  0  0  0  0  0  0  0  0  0
  -10.0711  -26.0134   25.2025 N   0  0  0  0  0  0  0  0  0  0  0  0
  -10.7848  -27.2578   23.8640 C   0  0  0  0  0  0  0  0  0  0  0  0
  -11.6788  -27.8278   24.3356 O   0  0  0  0  0  0  0  0  0  0  0  0
  -10.5739  -27.7476   21.7385 C   0  0  0  0  0  0  0  0  0  0  0  0
  -10.3089  -26.5883   20.4384 N   0  0  0  0  0  0  0  0  0  0  0  0
  -11.3577  -26.6303   19.0719 C   0  0  0  0  0  0  0  0  0  0  0  0
  -12.2458  -27.5489   19.1626 O   0  0  0  0  0  0  0  0  0  0  0  0
  -11.6327  -28.2756   20.1185 C   0  0  0  0  0  0  0  0  0  0  0  0
  -12.2954  -29.7637   19.5081 C   0  0  0  0  0  0  0  0  0  0  0  0
  -12.2555  -31.0780   20.2398 C   0  0  0  0  0  0  0  0  0  0  0  0
  -13.1085  -31.9303   19.3262 C   0  0  0  0  0  0  0  0  0  0  0  0
  -14.1893  -30.9609   18.8608 C   0  0  0  0  0  0  0  0  0  0  0  0
  -13.6935  -29.6201   19.0723 O   0  0  0  0  0  0  0  0  0  0  0  0
  -11.9256  -22.7546   27.7736 C   0  0  0  0  0  0  0  0  0  0  0  0
  -11.8268  -21.7275   26.9673 N   0  0  0  0  0  0  0  0  0  0  0  0
  -12.3557  -21.8403   25.6990 C   0  0  0  0  0  0  0  0  0  0  0  0
  -13.0633  -22.8691   25.1798 C   0  0  0  0  0  0  0  0  0  0  0  0
  -13.1475  -23.8734   26.0553 C   0  0  0  0  0  0  0  0  0  0  0  0
  -12.5674  -23.8414   27.2764 N   0  0  0  0  0  0  0  0  0  0  0  0
   -8.1007  -22.1976   34.1843 H   0  0  0  0  0  0  0  0  0  0  0  0
   -8.7321  -20.5359   34.2838 H   0  0  0  0  0  0  0  0  0  0  0  0
   -7.3908  -21.0180   33.1972 H   0  0  0  0  0  0  0  0  0  0  0  0
  -10.5341  -22.4695   32.5341 H   0  0  0  0  0  0  0  0  0  0  0  0
  -10.3449  -20.4428   32.1924 H   0  0  0  0  0  0  0  0  0  0  0  0
  -12.0120  -21.6551   30.5857 H   0  0  0  0  0  0  0  0  0  0  0  0
  -10.8443  -20.7900   29.7926 H   0  0  0  0  0  0  0  0  0  0  0  0
   -9.6483  -24.7309   28.7755 H   0  0  0  0  0  0  0  0  0  0  0  0
   -9.2243  -23.6216   27.4924 H   0  0  0  0  0  0  0  0  0  0  0  0
  -11.6652  -25.6440   26.6533 H   0  0  0  0  0  0  0  0  0  0  0  0
  -10.3951  -26.4905   27.3567 H   0  0  0  0  0  0  0  0  0  0  0  0
   -9.3183  -25.4321   24.7411 H   0  0  0  0  0  0  0  0  0  0  0  0
  -11.2868  -26.1457   18.1106 H   0  0  0  0  0  0  0  0  0  0  0  0
  -11.9260  -29.8012   18.4942 H   0  0  0  0  0  0  0  0  0  0  0  0
  -11.2648  -31.4509   20.4311 H   0  0  0  0  0  0  0  0  0  0  0  0
  -12.7374  -31.0692   21.2184 H   0  0  0  0  0  0  0  0  0  0  0  0
  -13.5229  -32.8161   19.8155 H   0  0  0  0  0  0  0  0  0  0  0  0
  -12.5188  -32.2696   18.4663 H   0  0  0  0  0  0  0  0  0  0  0  0
  -14.4302  -31.0933   17.8020 H   0  0  0  0  0  0  0  0  0  0  0  0
  -15.1084  -31.0743   19.4441 H   0  0  0  0  0  0  0  0  0  0  0  0
  -12.2072  -20.9821   25.0511 H   0  0  0  0  0  0  0  0  0  0  0  0
  -13.5136  -22.8495   24.2037 H   0  0  0  0  0  0  0  0  0  0  0  0
  -13.6593  -24.7925   25.7935 H   0  0  0  0  0  0  0  0  0  0  0  0
  1  2  1  0
  2  3  1  0
  3  4  1  0
  4  5  1  0
  5  6  1  0
  6  7  1  0
  7  8  1  0
  8  9  2  0
  8 10  1  0
 10 11  1  0
 11 12  2  0
 12 13  1  0
 13 14  1  0
 14 15  1  0
 15 16  1  0
 16 17  1  0
 17 18  1  0
 18 19  1  0
  4 20  1  0
 20 21  2  0
 21 22  1  0
 22 23  2  0
 23 24  1  0
 24 25  2  0
 14 10  2  0
 19 15  1  0
 25 20  1  0
  1 26  1  0
  1 27  1  0
  1 28  1  0
  2 29  1  0
  2 30  1  0
  3 31  1  0
  3 32  1  0
  5 33  1  0
  5 34  1  0
  6 35  1  0
  6 36  1  0
  7 37  1  0
 12 38  1  0
 15 39  1  0
 16 40  1  0
 16 41  1  0
 17 42  1  0
 17 43  1  0
 18 44  1  0
 18 45  1  0
 22 46  1  0
 23 47  1  0
 24 48  1  0
M  END
>  <Energy>  (821) 
1138.6155008975002

>  <compound_id>  (821) 
43791

>  <target_id>  (821) 
1

>  <reference_id>  (821) 
28

>  <inspiration_ids>  (821) 
[28, 54]

>  <energy_score>  (821) 
1122.5974274050811

>  <distance_score>  (821) 
5.71793692021424

>  <path>  (821) 
/opt/xchem-fragalysis-2/maxwin/BulkDock/SCRATCH/511025/C43791-P28/C43791-P28.minimised.mol

>  <scratch_subdir>  (821) 
/opt/xchem-fragalysis-2/maxwin/BulkDock/SCRATCH/511025/C43791-P28

>  <fragmenstein_runtime>  (821) 
17.585283517837524

>  <fragmenstein_outcome>  (821) 
too moved

>  <fragmenstein_mode>  (821) 
expansion

>  <fragmenstein_error>  (821) 


$$$$
C43791-P54
     RDKit          3D

 48 50  0  0  0  0  0  0  0  0999 V2000
  -10.4955  -22.8666   28.6658 C   0  0  0  0  0  0  0  0  0  0  0  0
  -10.6230  -23.2320   27.1858 C   0  0  0  0  0  0  0  0  0  0  0  0
  -11.6575  -22.3705   26.4607 C   0  0  0  0  0  0  0  0  0  0  0  0
  -12.0550  -22.8870   25.1118 N   0  0  0  0  0  0  0  0  0  0  0  0
  -11.5891  -22.1903   23.8172 C   0  0  0  0  0  0  0  0  0  0  0  0
  -12.3276  -22.3496   22.2965 C   0  0  0  0  0  0  0  0  0  0  0  0
  -12.4788  -23.2253   20.7968 N   0  0  0  0  0  0  0  0  0  0  0  0
  -13.1646  -24.7519   20.4578 C   0  0  0  0  0  0  0  0  0  0  0  0
  -13.5932  -25.5289   21.2550 O   0  0  0  0  0  0  0  0  0  0  0  0
  -13.4641  -25.3162   18.8975 C   0  0  0  0  0  0  0  0  0  0  0  0
  -14.2946  -24.5911   18.0557 N   0  0  0  0  0  0  0  0  0  0  0  0
  -14.5684  -25.3296   17.0156 C   0  0  0  0  0  0  0  0  0  0  0  0
  -13.9911  -26.5286   17.0370 O   0  0  0  0  0  0  0  0  0  0  0  0
  -13.2285  -26.5410   18.1875 C   0  0  0  0  0  0  0  0  0  0  0  0
  -12.3067  -27.7086   18.1488 C   0  0  0  0  0  0  0  0  0  0  0  0
  -12.9727  -29.0507   17.8462 C   0  0  0  0  0  0  0  0  0  0  0  0
  -11.9081  -29.7713   17.0574 C   0  0  0  0  0  0  0  0  0  0  0  0
  -11.3270  -28.6504   16.2297 C   0  0  0  0  0  0  0  0  0  0  0  0
  -11.4014  -27.4721   17.0362 O   0  0  0  0  0  0  0  0  0  0  0  0
  -13.3883  -23.2791   25.2872 C   0  0  0  0  0  0  0  0  0  0  0  0
  -14.4013  -22.5256   24.8473 N   0  0  0  0  0  0  0  0  0  0  0  0
  -15.6301  -22.8375   25.3024 C   0  0  0  0  0  0  0  0  0  0  0  0
  -15.9029  -23.9161   26.1078 C   0  0  0  0  0  0  0  0  0  0  0  0
  -14.8168  -24.6662   26.4630 C   0  0  0  0  0  0  0  0  0  0  0  0
  -13.5674  -24.3645   26.0805 N   0  0  0  0  0  0  0  0  0  0  0  0
  -10.2602  -21.8046   28.7835 H   0  0  0  0  0  0  0  0  0  0  0  0
   -9.6970  -23.4515   29.1328 H   0  0  0  0  0  0  0  0  0  0  0  0
  -11.4286  -23.0732   29.1997 H   0  0  0  0  0  0  0  0  0  0  0  0
  -10.8749  -24.2947   27.0978 H   0  0  0  0  0  0  0  0  0  0  0  0
   -9.6590  -23.0871   26.7076 H   0  0  0  0  0  0  0  0  0  0  0  0
  -12.5097  -22.3312   27.1419 H   0  0  0  0  0  0  0  0  0  0  0  0
  -11.3456  -21.3318   26.4261 H   0  0  0  0  0  0  0  0  0  0  0  0
  -11.7477  -21.1235   24.0255 H   0  0  0  0  0  0  0  0  0  0  0  0
  -10.5121  -22.3302   23.7087 H   0  0  0  0  0  0  0  0  0  0  0  0
  -13.3158  -22.5037   22.6809 H   0  0  0  0  0  0  0  0  0  0  0  0
  -12.0684  -21.3755   21.8807 H   0  0  0  0  0  0  0  0  0  0  0  0
  -12.2818  -22.7466   19.9291 H   0  0  0  0  0  0  0  0  0  0  0  0
  -15.1809  -25.0831   16.1604 H   0  0  0  0  0  0  0  0  0  0  0  0
  -11.6669  -27.8112   19.0071 H   0  0  0  0  0  0  0  0  0  0  0  0
  -13.2644  -29.5890   18.7513 H   0  0  0  0  0  0  0  0  0  0  0  0
  -13.8721  -28.9460   17.2281 H   0  0  0  0  0  0  0  0  0  0  0  0
  -12.2921  -30.5961   16.4518 H   0  0  0  0  0  0  0  0  0  0  0  0
  -11.1481  -30.1691   17.7396 H   0  0  0  0  0  0  0  0  0  0  0  0
  -10.2889  -28.8349   15.9399 H   0  0  0  0  0  0  0  0  0  0  0  0
  -11.9180  -28.4764   15.3242 H   0  0  0  0  0  0  0  0  0  0  0  0
  -16.4213  -22.1623   24.9853 H   0  0  0  0  0  0  0  0  0  0  0  0
  -16.9008  -24.1398   26.4583 H   0  0  0  0  0  0  0  0  0  0  0  0
  -14.9158  -25.5376   27.1014 H   0  0  0  0  0  0  0  0  0  0  0  0
  1  2  1  0
  2  3  1  0
  3  4  1  0
  4  5  1  0
  5  6  1  0
  6  7  1  0
  7  8  1  0
  8  9  2  0
  8 10  1  0
 10 11  1  0
 11 12  2  0
 12 13  1  0
 13 14  1  0
 14 15  1  0
 15 16  1  0
 16 17  1  0
 17 18  1  0
 18 19  1  0
  4 20  1  0
 20 21  2  0
 21 22  1  0
 22 23  2  0
 23 24  1  0
 24 25  2  0
 14 10  2  0
 19 15  1  0
 25 20  1  0
  1 26  1  0
  1 27  1  0
  1 28  1  0
  2 29  1  0
  2 30  1  0
  3 31  1  0
  3 32  1  0
  5 33  1  0
  5 34  1  0
  6 35  1  0
  6 36  1  0
  7 37  1  0
 12 38  1  0
 15 39  1  0
 16 40  1  0
 16 41  1  0
 17 42  1  0
 17 43  1  0
 18 44  1  0
 18 45  1  0
 22 46  1  0
 23 47  1  0
 24 48  1  0
M  END
>  <Energy>  (822) 
128.93892512423849

>  <compound_id>  (822) 
43791

>  <target_id>  (822) 
1

>  <reference_id>  (822) 
54

>  <inspiration_ids>  (822) 
[28, 54]

>  <energy_score>  (822) 
112.92085163182819

>  <distance_score>  (822) 
6.570767626638522

>  <path>  (822) 
/opt/xchem-fragalysis-2/maxwin/BulkDock/SCRATCH/511025/C43791-P54/C43791-P54.minimised.mol

>  <scratch_subdir>  (822) 
/opt/xchem-fragalysis-2/maxwin/BulkDock/SCRATCH/511025/C43791-P54

>  <fragmenstein_runtime>  (822) 
15.865089654922485

>  <fragmenstein_outcome>  (822) 
too moved

>  <fragmenstein_mode>  (822) 
expansion

>  <fragmenstein_error>  (822) 


$$$$
C92085-P28
     RDKit          3D

 32 33  0  0  0  0  0  0  0  0999 V2000
  -11.3635  -20.6599   23.5408 C   0  0  0  0  0  0  0  0  0  0  0  0
  -10.8745  -22.0101   23.3180 C   0  0  0  0  0  0  0  0  0  0  0  0
  -10.0616  -21.6204   21.9640 N   0  0  0  0  0  0  0  0  0  0  0  0
  -10.4814  -21.5628   20.5933 C   0  0  0  0  0  0  0  0  0  0  0  0
  -11.5670  -21.7173   20.1502 O   0  0  0  0  0  0  0  0  0  0  0  0
   -9.2593  -21.2137   19.2443 O   0  0  0  0  0  0  0  0  0  0  0  0
   -9.1386  -21.2507   17.2889 C   0  0  0  0  0  0  0  0  0  0  0  0
   -9.2566  -22.7003   15.8830 C   0  0  0  0  0  0  0  0  0  0  0  0
   -9.2880  -22.3492   14.4274 C   0  0  0  0  0  0  0  0  0  0  0  0
  -10.0297  -21.1885   14.4550 O   0  0  0  0  0  0  0  0  0  0  0  0
   -9.8829  -20.6379   15.8189 C   0  0  0  0  0  0  0  0  0  0  0  0
  -12.2938  -22.4611   24.1553 C   0  0  0  0  0  0  0  0  0  0  0  0
  -12.2704  -23.0820   25.4454 C   0  0  0  0  0  0  0  0  0  0  0  0
  -13.2930  -23.8498   25.8953 N   0  0  0  0  0  0  0  0  0  0  0  0
  -14.4265  -23.7152   25.1964 C   0  0  0  0  0  0  0  0  0  0  0  0
  -14.5643  -22.7999   24.2034 C   0  0  0  0  0  0  0  0  0  0  0  0
  -13.5046  -22.2704   23.5725 N   0  0  0  0  0  0  0  0  0  0  0  0
  -11.9604  -20.4363   24.4249 H   0  0  0  0  0  0  0  0  0  0  0  0
  -11.9264  -20.4397   22.6429 H   0  0  0  0  0  0  0  0  0  0  0  0
  -10.5147  -20.0210   23.5798 H   0  0  0  0  0  0  0  0  0  0  0  0
  -11.4729  -22.5388   22.5696 H   0  0  0  0  0  0  0  0  0  0  0  0
   -9.1018  -21.3629   22.0120 H   0  0  0  0  0  0  0  0  0  0  0  0
   -8.1309  -20.8353   17.4222 H   0  0  0  0  0  0  0  0  0  0  0  0
  -10.1542  -23.2790   15.9804 H   0  0  0  0  0  0  0  0  0  0  0  0
   -8.5152  -23.4838   15.8227 H   0  0  0  0  0  0  0  0  0  0  0  0
   -8.2983  -22.1752   14.0013 H   0  0  0  0  0  0  0  0  0  0  0  0
   -9.7899  -23.1048   13.8142 H   0  0  0  0  0  0  0  0  0  0  0  0
  -10.1110  -19.5656   15.7778 H   0  0  0  0  0  0  0  0  0  0  0  0
  -10.5419  -21.3722   16.0003 H   0  0  0  0  0  0  0  0  0  0  0  0
  -11.3991  -23.2308   26.0676 H   0  0  0  0  0  0  0  0  0  0  0  0
  -15.2762  -24.3384   25.4316 H   0  0  0  0  0  0  0  0  0  0  0  0
  -15.5521  -22.5480   23.8381 H   0  0  0  0  0  0  0  0  0  0  0  0
  1  2  1  0
  2  3  1  0
  3  4  1  0
  4  5  2  0
  4  6  1  0
  6  7  1  0
  7  8  1  0
  8  9  1  0
  9 10  1  0
 10 11  1  0
  2 12  1  0
 12 13  2  0
 13 14  1  0
 14 15  2  0
 15 16  1  0
 16 17  2  0
 11  7  1  0
 17 12  1  0
  1 18  1  0
  1 19  1  0
  1 20  1  0
  2 21  1  0
  3 22  1  0
  7 23  1  0
  8 24  1  0
  8 25  1  0
  9 26  1  0
  9 27  1  0
 11 28  1  0
 11 29  1  0
 13 30  1  0
 15 31  1  0
 16 32  1  0
M  END
>  <Energy>  (823) 
542.17591102921654

>  <compound_id>  (823) 
92085

>  <target_id>  (823) 
1

>  <reference_id>  (823) 
28

>  <inspiration_ids>  (823) 
[28, 54]

>  <energy_score>  (823) 
504.66691378050075

>  <distance_score>  (823) 
6.883444068236319

>  <path>  (823) 
/opt/xchem-fragalysis-2/maxwin/BulkDock/SCRATCH/511025/C92085-P28/C92085-P28.minimised.mol

>  <scratch_subdir>  (823) 
/opt/xchem-fragalysis-2/maxwin/BulkDock/SCRATCH/511025/C92085-P28

>  <fragmenstein_runtime>  (823) 
12.07262372970581

>  <fragmenstein_outcome>  (823) 
too moved

>  <fragmenstein_mode>  (823) 
expansion

>  <fragmenstein_error>  (823) 


$$$$
C92085-P54
     RDKit          3D

 32 33  0  0  0  0  0  0  0  0999 V2000
  -11.4109  -20.8031   21.7546 C   0  0  0  0  0  0  0  0  0  0  0  0
  -10.0924  -21.3961   21.9706 C   0  0  0  0  0  0  0  0  0  0  0  0
   -9.9414  -21.8243   20.3569 N   0  0  0  0  0  0  0  0  0  0  0  0
   -9.2313  -20.9944   19.0181 C   0  0  0  0  0  0  0  0  0  0  0  0
   -8.6381  -19.9606   19.0954 O   0  0  0  0  0  0  0  0  0  0  0  0
   -9.2975  -21.5147   17.3404 O   0  0  0  0  0  0  0  0  0  0  0  0
   -9.9205  -22.6400   15.9386 C   0  0  0  0  0  0  0  0  0  0  0  0
   -9.1203  -23.8108   15.4171 C   0  0  0  0  0  0  0  0  0  0  0  0
   -9.9643  -24.8385   14.6233 C   0  0  0  0  0  0  0  0  0  0  0  0
  -10.8373  -24.0721   13.8500 O   0  0  0  0  0  0  0  0  0  0  0  0
  -10.3439  -22.7485   14.1450 C   0  0  0  0  0  0  0  0  0  0  0  0
  -10.7307  -22.1534   23.4642 C   0  0  0  0  0  0  0  0  0  0  0  0
  -12.0841  -22.0245   23.9325 C   0  0  0  0  0  0  0  0  0  0  0  0
  -12.6502  -22.4966   25.0987 N   0  0  0  0  0  0  0  0  0  0  0  0
  -11.8056  -22.9938   25.9890 C   0  0  0  0  0  0  0  0  0  0  0  0
  -10.5017  -23.1677   25.6233 C   0  0  0  0  0  0  0  0  0  0  0  0
   -9.9570  -22.8210   24.3738 N   0  0  0  0  0  0  0  0  0  0  0  0
  -11.5244  -20.2906   20.8294 H   0  0  0  0  0  0  0  0  0  0  0  0
  -11.6691  -20.1460   22.5738 H   0  0  0  0  0  0  0  0  0  0  0  0
  -12.0876  -21.6471   21.5964 H   0  0  0  0  0  0  0  0  0  0  0  0
   -9.2749  -20.7674   22.2618 H   0  0  0  0  0  0  0  0  0  0  0  0
  -10.2818  -22.6504   20.0615 H   0  0  0  0  0  0  0  0  0  0  0  0
  -10.1752  -21.6629   15.5679 H   0  0  0  0  0  0  0  0  0  0  0  0
   -8.6039  -24.4196   16.0975 H   0  0  0  0  0  0  0  0  0  0  0  0
   -8.3349  -23.3215   14.8450 H   0  0  0  0  0  0  0  0  0  0  0  0
   -9.3980  -25.4821   13.9469 H   0  0  0  0  0  0  0  0  0  0  0  0
  -10.5281  -25.5148   15.2705 H   0  0  0  0  0  0  0  0  0  0  0  0
   -9.4947  -22.7297   13.4738 H   0  0  0  0  0  0  0  0  0  0  0  0
  -11.0685  -22.0460   13.7381 H   0  0  0  0  0  0  0  0  0  0  0  0
  -12.8699  -21.5355   23.3849 H   0  0  0  0  0  0  0  0  0  0  0  0
  -12.1927  -23.2556   26.9631 H   0  0  0  0  0  0  0  0  0  0  0  0
   -9.8326  -23.5540   26.3752 H   0  0  0  0  0  0  0  0  0  0  0  0
  1  2  1  0
  2  3  1  0
  3  4  1  0
  4  5  2  0
  4  6  1  0
  6  7  1  0
  7  8  1  0
  8  9  1  0
  9 10  1  0
 10 11  1  0
  2 12  1  0
 12 13  2  0
 13 14  1  0
 14 15  2  0
 15 16  1  0
 16 17  2  0
 11  7  1  0
 17 12  1  0
  1 18  1  0
  1 19  1  0
  1 20  1  0
  2 21  1  0
  3 22  1  0
  7 23  1  0
  8 24  1  0
  8 25  1  0
  9 26  1  0
  9 27  1  0
 11 28  1  0
 11 29  1  0
 13 30  1  0
 15 31  1  0
 16 32  1  0
M  END
>  <Energy>  (824) 
440.81539778548739

>  <compound_id>  (824) 
92085

>  <target_id>  (824) 
1

>  <reference_id>  (824) 
54

>  <inspiration_ids>  (824) 
[28, 54]

>  <energy_score>  (824) 
403.3064005367807

>  <distance_score>  (824) 
6.8292037381762425

>  <path>  (824) 
/opt/xchem-fragalysis-2/maxwin/BulkDock/SCRATCH/511025/C92085-P54/C92085-P54.minimised.mol

>  <scratch_subdir>  (824) 
/opt/xchem-fragalysis-2/maxwin/BulkDock/SCRATCH/511025/C92085-P54

>  <fragmenstein_runtime>  (824) 
10.88932490348816

>  <fragmenstein_outcome>  (824) 
too moved

>  <fragmenstein_mode>  (824) 
expansion

>  <fragmenstein_error>  (824) 


$$$$
C47073-P97
     RDKit          3D

 32 35  0  0  0  0  0  0  0  0999 V2000
   -0.3672  -14.8415   12.0375 C   0  0  0  0  0  0  0  0  0  0  0  0
   -1.1331  -15.3608   10.8957 C   0  0  0  0  0  0  0  0  0  0  0  0
   -0.6597  -16.3740   10.0833 C   0  0  0  0  0  0  0  0  0  0  0  0
   -1.9857  -17.2085    8.9592 C   0  0  0  0  0  0  0  0  0  0  0  0
   -3.4042  -17.0622    8.7056 N   0  0  0  0  0  0  0  0  0  0  0  0
   -4.6507  -18.3537    8.5714 C   0  0  0  0  0  0  0  0  0  0  0  0
   -3.9769  -19.4311    9.2006 C   0  0  0  0  0  0  0  0  0  0  0  0
   -2.2361  -19.1176    8.0867 S   0  0  0  0  0  0  0  0  0  0  0  0
   -4.5540  -20.4108   10.8698 C   0  0  0  0  0  0  0  0  0  0  0  0
   -6.2604  -19.8494   11.5875 C   0  0  0  0  0  0  0  0  0  0  0  0
   -7.1708  -18.7666   10.5432 C   0  0  0  0  0  0  0  0  0  0  0  0
   -6.5057  -18.1224    9.0066 C   0  0  0  0  0  0  0  0  0  0  0  0
    0.8684  -15.6967   10.3619 C   0  0  0  0  0  0  0  0  0  0  0  0
    2.2937  -15.5487    9.4232 C   0  0  0  0  0  0  0  0  0  0  0  0
    2.9941  -14.2352    9.4903 C   0  0  0  0  0  0  0  0  0  0  0  0
    2.2969  -13.1804   10.4879 N   0  0  0  0  0  0  0  0  0  0  0  0
    0.9561  -14.1379   11.3218 C   0  0  0  0  0  0  0  0  0  0  0  0
    0.0345  -13.5991   12.1168 C   0  0  0  0  0  0  0  0  0  0  0  0
    0.2417  -15.5814   12.5952 H   0  0  0  0  0  0  0  0  0  0  0  0
   -2.1433  -15.0038   10.7182 H   0  0  0  0  0  0  0  0  0  0  0  0
   -3.8755  -20.0649   11.6554 H   0  0  0  0  0  0  0  0  0  0  0  0
   -4.7204  -21.4140   11.2583 H   0  0  0  0  0  0  0  0  0  0  0  0
   -6.0166  -19.2761   12.5012 H   0  0  0  0  0  0  0  0  0  0  0  0
   -6.8198  -20.6765   12.0381 H   0  0  0  0  0  0  0  0  0  0  0  0
   -8.1509  -19.2148   10.3298 H   0  0  0  0  0  0  0  0  0  0  0  0
   -7.3944  -17.8847   11.1614 H   0  0  0  0  0  0  0  0  0  0  0  0
   -6.9053  -17.0816    9.0261 H   0  0  0  0  0  0  0  0  0  0  0  0
   -7.1122  -18.2998    8.1268 H   0  0  0  0  0  0  0  0  0  0  0  0
    2.5078  -16.3089    8.6803 H   0  0  0  0  0  0  0  0  0  0  0  0
    3.8453  -13.8203    8.9687 H   0  0  0  0  0  0  0  0  0  0  0  0
    2.6076  -12.2647   10.7877 H   0  0  0  0  0  0  0  0  0  0  0  0
    0.2925  -12.9665   12.9401 H   0  0  0  0  0  0  0  0  0  0  0  0
  1  2  2  0
  2  3  1  0
  3  4  1  0
  4  5  2  0
  5  6  1  0
  6  7  2  0
  7  8  1  0
  7  9  1  0
  9 10  1  0
 10 11  1  0
 11 12  1  0
  3 13  2  0
 13 14  1  0
 14 15  2  0
 15 16  1  0
 16 17  1  0
 17 18  2  0
 18  1  1  0
  8  4  1  0
 17 13  1  0
 12  6  1  0
  1 19  1  0
  2 20  1  0
  9 21  1  0
  9 22  1  0
 10 23  1  0
 10 24  1  0
 11 25  1  0
 11 26  1  0
 12 27  1  0
 12 28  1  0
 14 29  1  0
 15 30  1  0
 16 31  1  0
 18 32  1  0
M  END
>  <Energy>  (825) 
825.44793018829512

>  <compound_id>  (825) 
47073

>  <target_id>  (825) 
1

>  <reference_id>  (825) 
97

>  <inspiration_ids>  (825) 
[97, 48]

>  <energy_score>  (825) 
699.7614734072112

>  <distance_score>  (825) 
15.707725328051545

>  <path>  (825) 
/opt/xchem-fragalysis-2/maxwin/BulkDock/SCRATCH/511025/C47073-P97/C47073-P97.minimised.mol

>  <scratch_subdir>  (825) 
/opt/xchem-fragalysis-2/maxwin/BulkDock/SCRATCH/511025/C47073-P97

>  <fragmenstein_runtime>  (825) 
4.596828937530518

>  <fragmenstein_outcome>  (825) 
too moved

>  <fragmenstein_mode>  (825) 
expansion

>  <fragmenstein_error>  (825) 


$$$$
C47073-P48
     RDKit          3D

 32 35  0  0  0  0  0  0  0  0999 V2000
    0.9663  -11.2825   13.5633 C   0  0  0  0  0  0  0  0  0  0  0  0
    0.3770  -12.4469   12.8725 C   0  0  0  0  0  0  0  0  0  0  0  0
   -0.3918  -12.4942   11.7470 C   0  0  0  0  0  0  0  0  0  0  0  0
   -1.2262  -14.1992   11.5379 C   0  0  0  0  0  0  0  0  0  0  0  0
   -2.8174  -14.4085   11.8806 N   0  0  0  0  0  0  0  0  0  0  0  0
   -4.1614  -13.6816   12.9002 C   0  0  0  0  0  0  0  0  0  0  0  0
   -4.6915  -14.7934   12.5971 C   0  0  0  0  0  0  0  0  0  0  0  0
   -3.0531  -15.0937   10.8521 S   0  0  0  0  0  0  0  0  0  0  0  0
   -6.2148  -15.2795   12.3110 C   0  0  0  0  0  0  0  0  0  0  0  0
   -7.2707  -14.2087   12.5921 C   0  0  0  0  0  0  0  0  0  0  0  0
   -6.8647  -12.7976   12.1509 C   0  0  0  0  0  0  0  0  0  0  0  0
   -5.4035  -12.2804   12.5561 C   0  0  0  0  0  0  0  0  0  0  0  0
   -0.3851  -10.9140   11.3232 C   0  0  0  0  0  0  0  0  0  0  0  0
   -1.1083   -9.9360   10.4644 C   0  0  0  0  0  0  0  0  0  0  0  0
   -0.5013   -8.7006   10.3506 C   0  0  0  0  0  0  0  0  0  0  0  0
    0.5671   -8.7566   11.1540 N   0  0  0  0  0  0  0  0  0  0  0  0
    0.4909   -9.9173   11.8955 C   0  0  0  0  0  0  0  0  0  0  0  0
    1.1205  -10.0305   13.0837 C   0  0  0  0  0  0  0  0  0  0  0  0
    1.5076  -11.4444   14.4936 H   0  0  0  0  0  0  0  0  0  0  0  0
    0.5316  -13.4310   13.2703 H   0  0  0  0  0  0  0  0  0  0  0  0
   -6.3669  -15.5525   11.2707 H   0  0  0  0  0  0  0  0  0  0  0  0
   -6.4196  -16.1734   12.9121 H   0  0  0  0  0  0  0  0  0  0  0  0
   -7.5617  -14.1944   13.6460 H   0  0  0  0  0  0  0  0  0  0  0  0
   -8.1964  -14.4869   12.0707 H   0  0  0  0  0  0  0  0  0  0  0  0
   -7.5923  -12.0797   12.5524 H   0  0  0  0  0  0  0  0  0  0  0  0
   -7.0137  -12.7531   11.0719 H   0  0  0  0  0  0  0  0  0  0  0  0
   -5.4944  -11.5007   13.3372 H   0  0  0  0  0  0  0  0  0  0  0  0
   -5.0270  -11.4538   11.9564 H   0  0  0  0  0  0  0  0  0  0  0  0
   -1.9887  -10.0970    9.8585 H   0  0  0  0  0  0  0  0  0  0  0  0
   -0.7596   -7.8228    9.7740 H   0  0  0  0  0  0  0  0  0  0  0  0
    1.1825   -7.9833   11.3665 H   0  0  0  0  0  0  0  0  0  0  0  0
    1.6947   -9.2562   13.5701 H   0  0  0  0  0  0  0  0  0  0  0  0
  1  2  2  0
  2  3  1  0
  3  4  1  0
  4  5  2  0
  5  6  1  0
  6  7  2  0
  7  8  1  0
  7  9  1  0
  9 10  1  0
 10 11  1  0
 11 12  1  0
  3 13  2  0
 13 14  1  0
 14 15  2  0
 15 16  1  0
 16 17  1  0
 17 18  2  0
 18  1  1  0
  8  4  1  0
 17 13  1  0
 12  6  1  0
  1 19  1  0
  2 20  1  0
  9 21  1  0
  9 22  1  0
 10 23  1  0
 10 24  1  0
 11 25  1  0
 11 26  1  0
 12 27  1  0
 12 28  1  0
 14 29  1  0
 15 30  1  0
 16 31  1  0
 18 32  1  0
M  END
>  <Energy>  (826) 
703.07763811013092

>  <compound_id>  (826) 
47073

>  <target_id>  (826) 
1

>  <reference_id>  (826) 
48

>  <inspiration_ids>  (826) 
[97, 48]

>  <energy_score>  (826) 
577.3911813290312

>  <distance_score>  (826) 
15.344617639608227

>  <path>  (826) 
/opt/xchem-fragalysis-2/maxwin/BulkDock/SCRATCH/511025/C47073-P48/C47073-P48.minimised.mol

>  <scratch_subdir>  (826) 
/opt/xchem-fragalysis-2/maxwin/BulkDock/SCRATCH/511025/C47073-P48

>  <fragmenstein_runtime>  (826) 
4.422837972640991

>  <fragmenstein_outcome>  (826) 
too moved

>  <fragmenstein_mode>  (826) 
expansion

>  <fragmenstein_error>  (826) 


$$$$
C37110-P97
     RDKit          3D

 47 49  0  0  0  0  0  0  0  0999 V2000
    2.1383  -14.1583   18.2719 C   0  0  0  0  0  0  0  0  0  0  0  0
    1.3112  -13.8183   16.8772 C   0  0  0  0  0  0  0  0  0  0  0  0
    1.8387  -12.7989   15.3701 N   0  0  0  0  0  0  0  0  0  0  0  0
    0.8145  -13.0610   13.8564 C   0  0  0  0  0  0  0  0  0  0  0  0
   -0.7095  -13.9569   14.0179 C   0  0  0  0  0  0  0  0  0  0  0  0
   -1.8696  -14.6642   15.4391 N   0  0  0  0  0  0  0  0  0  0  0  0
   -2.2164  -14.1176   16.8109 C   0  0  0  0  0  0  0  0  0  0  0  0
   -1.7979  -13.1451   17.4039 O   0  0  0  0  0  0  0  0  0  0  0  0
   -3.3155  -14.8186   17.5729 C   0  0  0  0  0  0  0  0  0  0  0  0
   -4.5042  -15.3365   16.9304 N   0  0  0  0  0  0  0  0  0  0  0  0
   -4.9198  -15.3489   15.6346 C   0  0  0  0  0  0  0  0  0  0  0  0
   -6.2912  -15.3277   15.6909 C   0  0  0  0  0  0  0  0  0  0  0  0
   -6.5833  -15.5626   17.0484 C   0  0  0  0  0  0  0  0  0  0  0  0
   -5.4906  -15.6547   17.7899 N   0  0  0  0  0  0  0  0  0  0  0  0
    3.4791  -11.7041   15.6678 C   0  0  0  0  0  0  0  0  0  0  0  0
    4.1829  -10.4157   14.7862 C   0  0  0  0  0  0  0  0  0  0  0  0
    4.3368   -9.0724   15.2638 C   0  0  0  0  0  0  0  0  0  0  0  0
    5.5259   -8.2999   14.9927 C   0  0  0  0  0  0  0  0  0  0  0  0
    6.6499   -8.8983   14.3168 C   0  0  0  0  0  0  0  0  0  0  0  0
    7.5570   -8.5129   13.2921 C   0  0  0  0  0  0  0  0  0  0  0  0
    8.0253   -9.6402   12.5883 C   0  0  0  0  0  0  0  0  0  0  0  0
    7.6767  -10.6626   13.3622 N   0  0  0  0  0  0  0  0  0  0  0  0
    6.5058  -10.2226   13.9449 C   0  0  0  0  0  0  0  0  0  0  0  0
    5.2592  -10.9090   14.0106 C   0  0  0  0  0  0  0  0  0  0  0  0
    1.4224  -14.4191   19.0598 H   0  0  0  0  0  0  0  0  0  0  0  0
    2.7956  -15.0209   18.1345 H   0  0  0  0  0  0  0  0  0  0  0  0
    2.7614  -13.3412   18.6494 H   0  0  0  0  0  0  0  0  0  0  0  0
    1.1756  -14.7649   16.4546 H   0  0  0  0  0  0  0  0  0  0  0  0
    0.3484  -13.5404   17.2771 H   0  0  0  0  0  0  0  0  0  0  0  0
    1.2064  -13.8395   13.1862 H   0  0  0  0  0  0  0  0  0  0  0  0
    0.6352  -12.1933   13.2472 H   0  0  0  0  0  0  0  0  0  0  0  0
   -1.0796  -13.0266   13.7212 H   0  0  0  0  0  0  0  0  0  0  0  0
   -0.4270  -14.6570   13.2270 H   0  0  0  0  0  0  0  0  0  0  0  0
   -2.3575  -15.5520   15.2957 H   0  0  0  0  0  0  0  0  0  0  0  0
   -2.9200  -15.5498   18.2789 H   0  0  0  0  0  0  0  0  0  0  0  0
   -3.7241  -14.0338   18.2335 H   0  0  0  0  0  0  0  0  0  0  0  0
   -4.2623  -15.2498   14.7863 H   0  0  0  0  0  0  0  0  0  0  0  0
   -6.9646  -15.2524   14.8524 H   0  0  0  0  0  0  0  0  0  0  0  0
   -7.5142  -15.7470   17.5601 H   0  0  0  0  0  0  0  0  0  0  0  0
    3.5032  -11.4077   16.7122 H   0  0  0  0  0  0  0  0  0  0  0  0
    4.2984  -12.2726   15.3563 H   0  0  0  0  0  0  0  0  0  0  0  0
    3.6386   -8.6368   15.9686 H   0  0  0  0  0  0  0  0  0  0  0  0
    5.5681   -7.2875   15.3543 H   0  0  0  0  0  0  0  0  0  0  0  0
    7.6596   -7.5738   12.7982 H   0  0  0  0  0  0  0  0  0  0  0  0
    8.5822   -9.7501   11.6631 H   0  0  0  0  0  0  0  0  0  0  0  0
    7.8606  -11.6418   13.2036 H   0  0  0  0  0  0  0  0  0  0  0  0
    5.3176  -11.9492   13.7176 H   0  0  0  0  0  0  0  0  0  0  0  0
  1  2  1  0
  2  3  1  0
  3  4  1  0
  4  5  1  0
  5  6  1  0
  6  7  1  0
  7  8  2  0
  7  9  1  0
  9 10  1  0
 10 11  1  0
 11 12  2  0
 12 13  1  0
 13 14  2  0
  3 15  1  0
 15 16  1  0
 16 17  2  0
 17 18  1  0
 18 19  2  0
 19 20  1  0
 20 21  2  0
 21 22  1  0
 22 23  1  0
 23 24  2  0
 14 10  1  0
 24 16  1  0
 23 19  1  0
  1 25  1  0
  1 26  1  0
  1 27  1  0
  2 28  1  0
  2 29  1  0
  4 30  1  0
  4 31  1  0
  5 32  1  0
  5 33  1  0
  6 34  1  0
  9 35  1  0
  9 36  1  0
 11 37  1  0
 12 38  1  0
 13 39  1  0
 15 40  1  0
 15 41  1  0
 17 42  1  0
 18 43  1  0
 20 44  1  0
 21 45  1  0
 22 46  1  0
 24 47  1  0
M  END
>  <Energy>  (827) 
496.07252635165958

>  <compound_id>  (827) 
37110

>  <target_id>  (827) 
1

>  <reference_id>  (827) 
97

>  <inspiration_ids>  (827) 
[97, 48]

>  <energy_score>  (827) 
410.79115992555774

>  <distance_score>  (827) 
13.387509170420818

>  <path>  (827) 
/opt/xchem-fragalysis-2/maxwin/BulkDock/SCRATCH/511025/C37110-P97/C37110-P97.minimised.mol

>  <scratch_subdir>  (827) 
/opt/xchem-fragalysis-2/maxwin/BulkDock/SCRATCH/511025/C37110-P97

>  <fragmenstein_runtime>  (827) 
18.3578360080719

>  <fragmenstein_outcome>  (827) 
too moved

>  <fragmenstein_mode>  (827) 
expansion

>  <fragmenstein_error>  (827) 


$$$$
C37110-P48
     RDKit          3D

 47 49  0  0  0  0  0  0  0  0999 V2000
   -4.0793  -19.4049   19.5650 C   0  0  0  0  0  0  0  0  0  0  0  0
   -3.6207  -17.9821   19.2490 C   0  0  0  0  0  0  0  0  0  0  0  0
   -2.6973  -17.8215   18.1015 N   0  0  0  0  0  0  0  0  0  0  0  0
   -3.5251  -17.8997   16.7513 C   0  0  0  0  0  0  0  0  0  0  0  0
   -3.6332  -17.5426   14.8566 C   0  0  0  0  0  0  0  0  0  0  0  0
   -4.8682  -18.6859   13.8295 N   0  0  0  0  0  0  0  0  0  0  0  0
   -4.5333  -19.8540   12.6219 C   0  0  0  0  0  0  0  0  0  0  0  0
   -3.4537  -20.2658   12.2228 O   0  0  0  0  0  0  0  0  0  0  0  0
   -5.7404  -20.6252   11.9641 C   0  0  0  0  0  0  0  0  0  0  0  0
   -5.2336  -21.8446   11.2382 N   0  0  0  0  0  0  0  0  0  0  0  0
   -4.3477  -21.9254   10.1857 C   0  0  0  0  0  0  0  0  0  0  0  0
   -4.3315  -23.2328    9.7590 C   0  0  0  0  0  0  0  0  0  0  0  0
   -5.2694  -23.8832   10.5676 C   0  0  0  0  0  0  0  0  0  0  0  0
   -5.8851  -23.0416   11.4031 N   0  0  0  0  0  0  0  0  0  0  0  0
   -1.3061  -18.4051   18.4240 C   0  0  0  0  0  0  0  0  0  0  0  0
   -0.1020  -17.4631   19.1155 C   0  0  0  0  0  0  0  0  0  0  0  0
   -0.3372  -16.2887   19.8396 C   0  0  0  0  0  0  0  0  0  0  0  0
    0.7250  -15.4493   20.3008 C   0  0  0  0  0  0  0  0  0  0  0  0
    2.0676  -15.6589   19.8944 C   0  0  0  0  0  0  0  0  0  0  0  0
    3.3273  -14.9890   20.0601 C   0  0  0  0  0  0  0  0  0  0  0  0
    4.2601  -15.6446   19.2921 C   0  0  0  0  0  0  0  0  0  0  0  0
    3.6421  -16.7595   18.7786 N   0  0  0  0  0  0  0  0  0  0  0  0
    2.3153  -16.8197   19.1772 C   0  0  0  0  0  0  0  0  0  0  0  0
    1.2915  -17.7974   18.9589 C   0  0  0  0  0  0  0  0  0  0  0  0
   -4.6038  -19.8711   18.7284 H   0  0  0  0  0  0  0  0  0  0  0  0
   -3.2466  -20.0543   19.8476 H   0  0  0  0  0  0  0  0  0  0  0  0
   -4.7738  -19.3840   20.4119 H   0  0  0  0  0  0  0  0  0  0  0  0
   -3.1381  -17.5760   20.1459 H   0  0  0  0  0  0  0  0  0  0  0  0
   -4.5057  -17.3501   19.1034 H   0  0  0  0  0  0  0  0  0  0  0  0
   -4.0820  -16.9782   16.9819 H   0  0  0  0  0  0  0  0  0  0  0  0
   -4.1300  -18.7607   16.9697 H   0  0  0  0  0  0  0  0  0  0  0  0
   -2.6510  -17.7391   14.4598 H   0  0  0  0  0  0  0  0  0  0  0  0
   -4.0012  -16.5152   14.7129 H   0  0  0  0  0  0  0  0  0  0  0  0
   -5.8564  -18.5071   13.8625 H   0  0  0  0  0  0  0  0  0  0  0  0
   -6.4929  -21.0156   12.6498 H   0  0  0  0  0  0  0  0  0  0  0  0
   -6.2894  -20.0300   11.2391 H   0  0  0  0  0  0  0  0  0  0  0  0
   -3.7862  -21.0579    9.8681 H   0  0  0  0  0  0  0  0  0  0  0  0
   -3.7135  -23.6534    8.9802 H   0  0  0  0  0  0  0  0  0  0  0  0
   -5.5604  -24.9246   10.5622 H   0  0  0  0  0  0  0  0  0  0  0  0
   -1.3991  -19.2611   19.1004 H   0  0  0  0  0  0  0  0  0  0  0  0
   -0.9076  -18.8138   17.4924 H   0  0  0  0  0  0  0  0  0  0  0  0
   -1.3594  -15.9921   20.0635 H   0  0  0  0  0  0  0  0  0  0  0  0
    0.4657  -14.5941   20.9192 H   0  0  0  0  0  0  0  0  0  0  0  0
    3.5170  -14.1022   20.6457 H   0  0  0  0  0  0  0  0  0  0  0  0
    5.3053  -15.4503   19.0972 H   0  0  0  0  0  0  0  0  0  0  0  0
    4.0871  -17.4486   18.1882 H   0  0  0  0  0  0  0  0  0  0  0  0
    1.5703  -18.7511   18.5076 H   0  0  0  0  0  0  0  0  0  0  0  0
  1  2  1  0
  2  3  1  0
  3  4  1  0
  4  5  1  0
  5  6  1  0
  6  7  1  0
  7  8  2  0
  7  9  1  0
  9 10  1  0
 10 11  1  0
 11 12  2  0
 12 13  1  0
 13 14  2  0
  3 15  1  0
 15 16  1  0
 16 17  2  0
 17 18  1  0
 18 19  2  0
 19 20  1  0
 20 21  2  0
 21 22  1  0
 22 23  1  0
 23 24  2  0
 14 10  1  0
 24 16  1  0
 23 19  1  0
  1 25  1  0
  1 26  1  0
  1 27  1  0
  2 28  1  0
  2 29  1  0
  4 30  1  0
  4 31  1  0
  5 32  1  0
  5 33  1  0
  6 34  1  0
  9 35  1  0
  9 36  1  0
 11 37  1  0
 12 38  1  0
 13 39  1  0
 15 40  1  0
 15 41  1  0
 17 42  1  0
 18 43  1  0
 20 44  1  0
 21 45  1  0
 22 46  1  0
 24 47  1  0
M  END
>  <Energy>  (828) 
256.77227842558142

>  <compound_id>  (828) 
37110

>  <target_id>  (828) 
1

>  <reference_id>  (828) 
48

>  <inspiration_ids>  (828) 
[97, 48]

>  <energy_score>  (828) 
171.49091199948077

>  <distance_score>  (828) 
14.308648904634808

>  <path>  (828) 
/opt/xchem-fragalysis-2/maxwin/BulkDock/SCRATCH/511025/C37110-P48/C37110-P48.minimised.mol

>  <scratch_subdir>  (828) 
/opt/xchem-fragalysis-2/maxwin/BulkDock/SCRATCH/511025/C37110-P48

>  <fragmenstein_runtime>  (828) 
14.184916734695435

>  <fragmenstein_outcome>  (828) 
too moved

>  <fragmenstein_mode>  (828) 
expansion

>  <fragmenstein_error>  (828) 


$$$$
C8332-P97
     RDKit          3D

 40 42  0  0  0  0  0  0  0  0999 V2000
    6.0140  -18.3266   10.0791 C   0  0  0  0  0  0  0  0  0  0  0  0
    5.0544  -17.4487   10.6643 O   0  0  0  0  0  0  0  0  0  0  0  0
    5.3620  -17.2656   12.0058 C   0  0  0  0  0  0  0  0  0  0  0  0
    4.5209  -17.9511   12.9553 C   0  0  0  0  0  0  0  0  0  0  0  0
    3.1418  -18.6934   12.4703 C   0  0  0  0  0  0  0  0  0  0  0  0
    2.0037  -19.3444   13.3827 N   0  0  0  0  0  0  0  0  0  0  0  0
    2.4993  -20.5345   14.0303 C   0  0  0  0  0  0  0  0  0  0  0  0
    0.4937  -19.3958   12.7829 C   0  0  0  0  0  0  0  0  0  0  0  0
   -1.1498  -19.6600   13.6356 C   0  0  0  0  0  0  0  0  0  0  0  0
   -2.2797  -20.5943   13.7225 C   0  0  0  0  0  0  0  0  0  0  0  0
   -3.5779  -20.5750   12.4183 C   0  0  0  0  0  0  0  0  0  0  0  0
   -4.7327  -20.0653   12.4127 C   0  0  0  0  0  0  0  0  0  0  0  0
   -3.9640  -19.2658   13.0337 C   0  0  0  0  0  0  0  0  0  0  0  0
   -2.2422  -18.7428   13.7944 N   0  0  0  0  0  0  0  0  0  0  0  0
    4.9540  -17.8219   14.2791 C   0  0  0  0  0  0  0  0  0  0  0  0
    6.0325  -16.9535   14.6882 C   0  0  0  0  0  0  0  0  0  0  0  0
    6.6695  -16.1442   13.7337 C   0  0  0  0  0  0  0  0  0  0  0  0
    7.5983  -15.1251   13.8620 N   0  0  0  0  0  0  0  0  0  0  0  0
    7.8838  -14.5866   12.6337 C   0  0  0  0  0  0  0  0  0  0  0  0
    7.1655  -15.3024   11.6977 C   0  0  0  0  0  0  0  0  0  0  0  0
    6.3704  -16.2890   12.3815 C   0  0  0  0  0  0  0  0  0  0  0  0
    6.0665  -19.2784   10.6199 H   0  0  0  0  0  0  0  0  0  0  0  0
    5.6924  -18.5383    9.0549 H   0  0  0  0  0  0  0  0  0  0  0  0
    7.0034  -17.8601   10.0317 H   0  0  0  0  0  0  0  0  0  0  0  0
    3.4618  -19.4889   11.7849 H   0  0  0  0  0  0  0  0  0  0  0  0
    2.6181  -17.9497   11.8627 H   0  0  0  0  0  0  0  0  0  0  0  0
    2.8205  -21.3023   13.3211 H   0  0  0  0  0  0  0  0  0  0  0  0
    1.7743  -20.9510   14.7287 H   0  0  0  0  0  0  0  0  0  0  0  0
    3.3748  -20.3010   14.6438 H   0  0  0  0  0  0  0  0  0  0  0  0
    0.5686  -19.9381   11.8486 H   0  0  0  0  0  0  0  0  0  0  0  0
    0.4166  -18.3882   12.3489 H   0  0  0  0  0  0  0  0  0  0  0  0
   -2.8046  -21.2352   14.3939 H   0  0  0  0  0  0  0  0  0  0  0  0
   -3.3965  -20.2132   11.3870 H   0  0  0  0  0  0  0  0  0  0  0  0
   -5.6957  -19.7354   12.1324 H   0  0  0  0  0  0  0  0  0  0  0  0
   -4.8454  -18.8465   13.7300 H   0  0  0  0  0  0  0  0  0  0  0  0
    4.3503  -18.3147   15.0376 H   0  0  0  0  0  0  0  0  0  0  0  0
    6.2661  -16.8295   15.7400 H   0  0  0  0  0  0  0  0  0  0  0  0
    7.9955  -14.8132   14.7378 H   0  0  0  0  0  0  0  0  0  0  0  0
    8.5728  -13.7584   12.5307 H   0  0  0  0  0  0  0  0  0  0  0  0
    7.1626  -15.1221   10.6304 H   0  0  0  0  0  0  0  0  0  0  0  0
  1  2  1  0
  2  3  1  0
  3  4  2  0
  4  5  1  0
  5  6  1  0
  6  7  1  0
  6  8  1  0
  8  9  1  0
  9 10  2  0
 10 11  1  0
 11 12  2  0
 12 13  1  0
 13 14  2  0
  4 15  1  0
 15 16  2  0
 16 17  1  0
 17 18  1  0
 18 19  1  0
 19 20  2  0
 20 21  1  0
 21  3  1  0
 14  9  1  0
 21 17  2  0
  1 22  1  0
  1 23  1  0
  1 24  1  0
  5 25  1  0
  5 26  1  0
  7 27  1  0
  7 28  1  0
  7 29  1  0
  8 30  1  0
  8 31  1  0
 10 32  1  0
 11 33  1  0
 12 34  1  0
 13 35  1  0
 15 36  1  0
 16 37  1  0
 18 38  1  0
 19 39  1  0
 20 40  1  0
M  END
>  <Energy>  (829) 
566.99534314571417

>  <compound_id>  (829) 
8332

>  <target_id>  (829) 
1

>  <reference_id>  (829) 
97

>  <inspiration_ids>  (829) 
[97, 48]

>  <energy_score>  (829) 
465.42929451720175

>  <distance_score>  (829) 
14.93802149282992

>  <path>  (829) 
/opt/xchem-fragalysis-2/maxwin/BulkDock/SCRATCH/511025/C8332-P97/C8332-P97.minimised.mol

>  <scratch_subdir>  (829) 
/opt/xchem-fragalysis-2/maxwin/BulkDock/SCRATCH/511025/C8332-P97

>  <fragmenstein_runtime>  (829) 
15.208586692810059

>  <fragmenstein_outcome>  (829) 
too moved

>  <fragmenstein_mode>  (829) 
expansion

>  <fragmenstein_error>  (829) 


$$$$
C8332-P48
     RDKit          3D

 40 42  0  0  0  0  0  0  0  0999 V2000
   10.8762  -15.2953   14.4523 C   0  0  0  0  0  0  0  0  0  0  0  0
   10.5090  -14.3992   13.4031 O   0  0  0  0  0  0  0  0  0  0  0  0
    9.6192  -13.4567   13.8851 C   0  0  0  0  0  0  0  0  0  0  0  0
    8.2399  -13.6131   13.5693 C   0  0  0  0  0  0  0  0  0  0  0  0
    7.7316  -14.7459   12.6214 C   0  0  0  0  0  0  0  0  0  0  0  0
    6.5383  -15.6505   12.9999 N   0  0  0  0  0  0  0  0  0  0  0  0
    6.8913  -16.4190   14.1957 C   0  0  0  0  0  0  0  0  0  0  0  0
    6.1930  -16.6433   11.8455 C   0  0  0  0  0  0  0  0  0  0  0  0
    4.8284  -17.4833   11.7183 C   0  0  0  0  0  0  0  0  0  0  0  0
    4.5055  -18.5573   12.5598 C   0  0  0  0  0  0  0  0  0  0  0  0
    3.3742  -19.3705   12.2979 C   0  0  0  0  0  0  0  0  0  0  0  0
    2.5658  -19.1124   11.1999 C   0  0  0  0  0  0  0  0  0  0  0  0
    2.9376  -18.0512   10.3995 C   0  0  0  0  0  0  0  0  0  0  0  0
    4.0485  -17.2701   10.6067 N   0  0  0  0  0  0  0  0  0  0  0  0
    7.3906  -12.5911   14.0187 C   0  0  0  0  0  0  0  0  0  0  0  0
    7.8194  -11.4816   14.7617 C   0  0  0  0  0  0  0  0  0  0  0  0
    9.1759  -11.3800   15.0389 C   0  0  0  0  0  0  0  0  0  0  0  0
    9.8515  -10.3873   15.7039 N   0  0  0  0  0  0  0  0  0  0  0  0
   11.1860  -10.6861   15.7419 C   0  0  0  0  0  0  0  0  0  0  0  0
   11.3794  -11.8493   15.0342 C   0  0  0  0  0  0  0  0  0  0  0  0
   10.1011  -12.3228   14.6078 C   0  0  0  0  0  0  0  0  0  0  0  0
   11.5124  -14.8004   15.1926 H   0  0  0  0  0  0  0  0  0  0  0  0
   11.4519  -16.1120   14.0065 H   0  0  0  0  0  0  0  0  0  0  0  0
    9.9950  -15.7299   14.9376 H   0  0  0  0  0  0  0  0  0  0  0  0
    7.4543  -14.2336   11.6906 H   0  0  0  0  0  0  0  0  0  0  0  0
    8.5676  -15.4086   12.3680 H   0  0  0  0  0  0  0  0  0  0  0  0
    6.0422  -17.0160   14.5391 H   0  0  0  0  0  0  0  0  0  0  0  0
    7.7427  -17.0869   14.0247 H   0  0  0  0  0  0  0  0  0  0  0  0
    7.1405  -15.7517   15.0276 H   0  0  0  0  0  0  0  0  0  0  0  0
    6.2206  -16.0443   10.9262 H   0  0  0  0  0  0  0  0  0  0  0  0
    7.0122  -17.3692   11.7533 H   0  0  0  0  0  0  0  0  0  0  0  0
    5.1250  -18.7869   13.4184 H   0  0  0  0  0  0  0  0  0  0  0  0
    3.1233  -20.1831   12.9743 H   0  0  0  0  0  0  0  0  0  0  0  0
    1.6816  -19.6994   10.9917 H   0  0  0  0  0  0  0  0  0  0  0  0
    2.3456  -17.7783    9.5308 H   0  0  0  0  0  0  0  0  0  0  0  0
    6.3436  -12.6029   13.7759 H   0  0  0  0  0  0  0  0  0  0  0  0
    7.1198  -10.7098   15.0706 H   0  0  0  0  0  0  0  0  0  0  0  0
    9.3987   -9.5359   16.0302 H   0  0  0  0  0  0  0  0  0  0  0  0
   11.8802  -10.0153   16.2197 H   0  0  0  0  0  0  0  0  0  0  0  0
   12.3300  -12.3306   14.8492 H   0  0  0  0  0  0  0  0  0  0  0  0
  1  2  1  0
  2  3  1  0
  3  4  2  0
  4  5  1  0
  5  6  1  0
  6  7  1  0
  6  8  1  0
  8  9  1  0
  9 10  2  0
 10 11  1  0
 11 12  2  0
 12 13  1  0
 13 14  2  0
  4 15  1  0
 15 16  2  0
 16 17  1  0
 17 18  1  0
 18 19  1  0
 19 20  2  0
 20 21  1  0
 21  3  1  0
 14  9  1  0
 21 17  2  0
  1 22  1  0
  1 23  1  0
  1 24  1  0
  5 25  1  0
  5 26  1  0
  7 27  1  0
  7 28  1  0
  7 29  1  0
  8 30  1  0
  8 31  1  0
 10 32  1  0
 11 33  1  0
 12 34  1  0
 13 35  1  0
 15 36  1  0
 16 37  1  0
 18 38  1  0
 19 39  1  0
 20 40  1  0
M  END
>  <Energy>  (830) 
93.302778505555892

>  <compound_id>  (830) 
8332

>  <target_id>  (830) 
1

>  <reference_id>  (830) 
48

>  <inspiration_ids>  (830) 
[97, 48]

>  <energy_score>  (830) 
-8.263270122961643

>  <distance_score>  (830) 
14.293546842747332

>  <path>  (830) 
/opt/xchem-fragalysis-2/maxwin/BulkDock/SCRATCH/511025/C8332-P48/C8332-P48.minimised.mol

>  <scratch_subdir>  (830) 
/opt/xchem-fragalysis-2/maxwin/BulkDock/SCRATCH/511025/C8332-P48

>  <fragmenstein_runtime>  (830) 
6.682315826416016

>  <fragmenstein_outcome>  (830) 
too moved

>  <fragmenstein_mode>  (830) 
expansion

>  <fragmenstein_error>  (830) 


$$$$
C26234-P97
     RDKit          3D

 34 36  0  0  0  0  0  0  0  0999 V2000
   12.9994   -3.3613   16.7607 C   0  0  0  0  0  0  0  0  0  0  0  0
   12.5498   -4.7409   16.5289 C   0  0  0  0  0  0  0  0  0  0  0  0
   13.1876   -5.9062   16.2487 C   0  0  0  0  0  0  0  0  0  0  0  0
   12.2204   -7.3749   16.1404 C   0  0  0  0  0  0  0  0  0  0  0  0
   11.7494   -9.2358   15.9639 C   0  0  0  0  0  0  0  0  0  0  0  0
   10.5931  -10.3953   15.7971 C   0  0  0  0  0  0  0  0  0  0  0  0
    8.9503  -11.3559   15.7857 C   0  0  0  0  0  0  0  0  0  0  0  0
    7.2258  -10.9575   15.2526 N   0  0  0  0  0  0  0  0  0  0  0  0
    5.7013  -11.2026   16.0558 C   0  0  0  0  0  0  0  0  0  0  0  0
    5.5649  -11.6124   17.1571 O   0  0  0  0  0  0  0  0  0  0  0  0
    4.4206  -10.8589   14.9247 N   0  0  0  0  0  0  0  0  0  0  0  0
    2.7112  -11.1176   15.0421 C   0  0  0  0  0  0  0  0  0  0  0  0
    1.3660  -11.7884   13.7330 C   0  0  0  0  0  0  0  0  0  0  0  0
    0.8151  -12.9224   13.8402 C   0  0  0  0  0  0  0  0  0  0  0  0
    1.6846  -13.0155   15.2132 O   0  0  0  0  0  0  0  0  0  0  0  0
    2.0562  -11.7238   16.0021 N   0  0  0  0  0  0  0  0  0  0  0  0
    9.8114   -9.3429   15.7518 C   0  0  0  0  0  0  0  0  0  0  0  0
    9.7678   -7.6370   15.4887 C   0  0  0  0  0  0  0  0  0  0  0  0
   11.1332   -6.5684   15.9232 C   0  0  0  0  0  0  0  0  0  0  0  0
   11.3192   -5.1321   16.2127 N   0  0  0  0  0  0  0  0  0  0  0  0
   13.8712   -3.1281   16.1410 H   0  0  0  0  0  0  0  0  0  0  0  0
   13.2905   -3.2340   17.8066 H   0  0  0  0  0  0  0  0  0  0  0  0
   12.2198   -2.6335   16.5186 H   0  0  0  0  0  0  0  0  0  0  0  0
   14.2622   -5.8009   16.0854 H   0  0  0  0  0  0  0  0  0  0  0  0
   12.5029   -9.7371   15.3449 H   0  0  0  0  0  0  0  0  0  0  0  0
    8.8259  -11.7147   16.8168 H   0  0  0  0  0  0  0  0  0  0  0  0
    9.1945  -12.1934   15.1211 H   0  0  0  0  0  0  0  0  0  0  0  0
    7.0641  -10.5213   14.3505 H   0  0  0  0  0  0  0  0  0  0  0  0
    4.8186  -10.6018   14.0349 H   0  0  0  0  0  0  0  0  0  0  0  0
    1.3257  -11.3263   12.6905 H   0  0  0  0  0  0  0  0  0  0  0  0
    0.2646  -13.7639   13.4287 H   0  0  0  0  0  0  0  0  0  0  0  0
    8.9717   -9.6248   16.3912 H   0  0  0  0  0  0  0  0  0  0  0  0
    8.8252   -7.2159   15.1530 H   0  0  0  0  0  0  0  0  0  0  0  0
   10.5503   -4.5169   16.0153 H   0  0  0  0  0  0  0  0  0  0  0  0
  1  2  1  0
  2  3  2  0
  3  4  1  0
  4  5  2  0
  5  6  1  0
  6  7  1  0
  7  8  1  0
  8  9  1  0
  9 10  2  0
  9 11  1  0
 11 12  1  0
 12 13  1  0
 13 14  2  0
 14 15  1  0
 15 16  1  0
  6 17  2  0
 17 18  1  0
 18 19  2  0
 19 20  1  0
 20  2  1  0
 19  4  1  0
 16 12  2  0
  1 21  1  0
  1 22  1  0
  1 23  1  0
  3 24  1  0
  5 25  1  0
  7 26  1  0
  7 27  1  0
  8 28  1  0
 11 29  1  0
 13 30  1  0
 14 31  1  0
 17 32  1  0
 18 33  1  0
 20 34  1  0
M  END
>  <Energy>  (831) 
708.37963791946265

>  <compound_id>  (831) 
26234

>  <target_id>  (831) 
1

>  <reference_id>  (831) 
97

>  <inspiration_ids>  (831) 
[97, 48]

>  <energy_score>  (831) 
767.7482453429375

>  <distance_score>  (831) 
13.110207234906738

>  <path>  (831) 
/opt/xchem-fragalysis-2/maxwin/BulkDock/SCRATCH/511025/C26234-P97/C26234-P97.minimised.mol

>  <scratch_subdir>  (831) 
/opt/xchem-fragalysis-2/maxwin/BulkDock/SCRATCH/511025/C26234-P97

>  <fragmenstein_runtime>  (831) 
11.889835357666016

>  <fragmenstein_outcome>  (831) 
too moved

>  <fragmenstein_mode>  (831) 
expansion

>  <fragmenstein_error>  (831) 


$$$$
C26234-P48
     RDKit          3D

 34 36  0  0  0  0  0  0  0  0999 V2000
    4.2112   -0.2295   16.4049 C   0  0  0  0  0  0  0  0  0  0  0  0
    3.6012   -1.4353   15.7970 C   0  0  0  0  0  0  0  0  0  0  0  0
    3.1115   -1.6736   14.5291 C   0  0  0  0  0  0  0  0  0  0  0  0
    2.4113   -2.9175   14.5657 C   0  0  0  0  0  0  0  0  0  0  0  0
    1.5447   -3.6029   13.6811 C   0  0  0  0  0  0  0  0  0  0  0  0
    0.8777   -4.8031   14.0635 C   0  0  0  0  0  0  0  0  0  0  0  0
   -0.1022   -5.4320   13.0709 C   0  0  0  0  0  0  0  0  0  0  0  0
   -1.3316   -6.1416   13.4673 N   0  0  0  0  0  0  0  0  0  0  0  0
   -2.6109   -6.4603   12.6642 C   0  0  0  0  0  0  0  0  0  0  0  0
   -2.9063   -6.1288   11.5777 O   0  0  0  0  0  0  0  0  0  0  0  0
   -3.3155   -7.3889   13.6192 N   0  0  0  0  0  0  0  0  0  0  0  0
   -4.4511   -8.1779   13.4476 C   0  0  0  0  0  0  0  0  0  0  0  0
   -5.1033   -8.4969   12.2185 C   0  0  0  0  0  0  0  0  0  0  0  0
   -6.0309   -9.4593   12.5319 C   0  0  0  0  0  0  0  0  0  0  0  0
   -5.9909   -9.6922   13.8635 O   0  0  0  0  0  0  0  0  0  0  0  0
   -5.0295   -8.8680   14.4474 N   0  0  0  0  0  0  0  0  0  0  0  0
    1.2453   -5.3825   15.2802 C   0  0  0  0  0  0  0  0  0  0  0  0
    2.1337   -4.7413   16.1700 C   0  0  0  0  0  0  0  0  0  0  0  0
    2.6463   -3.4872   15.8102 C   0  0  0  0  0  0  0  0  0  0  0  0
    3.3761   -2.5745   16.5324 N   0  0  0  0  0  0  0  0  0  0  0  0
    3.8280    0.6786   15.9294 H   0  0  0  0  0  0  0  0  0  0  0  0
    3.9755   -0.1650   17.4725 H   0  0  0  0  0  0  0  0  0  0  0  0
    5.2984   -0.2478   16.3008 H   0  0  0  0  0  0  0  0  0  0  0  0
    3.1277   -0.9759   13.7023 H   0  0  0  0  0  0  0  0  0  0  0  0
    1.3320   -3.1517   12.7138 H   0  0  0  0  0  0  0  0  0  0  0  0
   -0.4398   -4.6629   12.3655 H   0  0  0  0  0  0  0  0  0  0  0  0
    0.4680   -6.1561   12.4759 H   0  0  0  0  0  0  0  0  0  0  0  0
   -1.3508   -6.6437   14.3346 H   0  0  0  0  0  0  0  0  0  0  0  0
   -2.8363   -7.3888   14.4954 H   0  0  0  0  0  0  0  0  0  0  0  0
   -4.8649   -8.1164   11.2374 H   0  0  0  0  0  0  0  0  0  0  0  0
   -6.7470  -10.0387   11.9733 H   0  0  0  0  0  0  0  0  0  0  0  0
    0.8199   -6.3388   15.5753 H   0  0  0  0  0  0  0  0  0  0  0  0
    2.3577   -5.1851   17.1352 H   0  0  0  0  0  0  0  0  0  0  0  0
    3.6112   -2.6892   17.5077 H   0  0  0  0  0  0  0  0  0  0  0  0
  1  2  1  0
  2  3  2  0
  3  4  1  0
  4  5  2  0
  5  6  1  0
  6  7  1  0
  7  8  1  0
  8  9  1  0
  9 10  2  0
  9 11  1  0
 11 12  1  0
 12 13  1  0
 13 14  2  0
 14 15  1  0
 15 16  1  0
  6 17  2  0
 17 18  1  0
 18 19  2  0
 19 20  1  0
 20  2  1  0
 19  4  1  0
 16 12  2  0
  1 21  1  0
  1 22  1  0
  1 23  1  0
  3 24  1  0
  5 25  1  0
  7 26  1  0
  7 27  1  0
  8 28  1  0
 11 29  1  0
 13 30  1  0
 14 31  1  0
 17 32  1  0
 18 33  1  0
 20 34  1  0
M  END
>  <Energy>  (832) 
-49.671355388435082

>  <compound_id>  (832) 
26234

>  <target_id>  (832) 
1

>  <reference_id>  (832) 
48

>  <inspiration_ids>  (832) 
[97, 48]

>  <energy_score>  (832) 
9.69725203503046

>  <distance_score>  (832) 
14.499505982891941

>  <path>  (832) 
/opt/xchem-fragalysis-2/maxwin/BulkDock/SCRATCH/511025/C26234-P48/C26234-P48.minimised.mol

>  <scratch_subdir>  (832) 
/opt/xchem-fragalysis-2/maxwin/BulkDock/SCRATCH/511025/C26234-P48

>  <fragmenstein_runtime>  (832) 
10.612485885620117

>  <fragmenstein_outcome>  (832) 
too moved

>  <fragmenstein_mode>  (832) 
expansion

>  <fragmenstein_error>  (832) 


$$$$
C58699-P97
     RDKit          3D

 37 39  0  0  0  0  0  0  0  0999 V2000
    4.8352   -1.1939   11.8072 C   0  0  0  0  0  0  0  0  0  0  0  0
    3.9826   -2.3946   11.8185 C   0  0  0  0  0  0  0  0  0  0  0  0
    2.9562   -2.7739   12.6576 C   0  0  0  0  0  0  0  0  0  0  0  0
    2.4701   -4.0397   12.2137 C   0  0  0  0  0  0  0  0  0  0  0  0
    1.4194   -4.9053   12.6124 C   0  0  0  0  0  0  0  0  0  0  0  0
    1.1460   -6.1166   11.9193 C   0  0  0  0  0  0  0  0  0  0  0  0
   -0.0029   -7.0184   12.3843 C   0  0  0  0  0  0  0  0  0  0  0  0
   -1.0254   -7.5277   11.4529 N   0  0  0  0  0  0  0  0  0  0  0  0
   -2.5184   -7.8032   11.6644 C   0  0  0  0  0  0  0  0  0  0  0  0
   -3.1950   -7.5913   12.6024 O   0  0  0  0  0  0  0  0  0  0  0  0
   -2.8541   -8.5212   10.3547 N   0  0  0  0  0  0  0  0  0  0  0  0
   -4.0402   -9.2109    9.9471 C   0  0  0  0  0  0  0  0  0  0  0  0
   -4.1637   -9.7142    8.6465 C   0  0  0  0  0  0  0  0  0  0  0  0
   -5.3218  -10.4100    8.2716 C   0  0  0  0  0  0  0  0  0  0  0  0
   -6.3497  -10.6739    9.1061 N   0  0  0  0  0  0  0  0  0  0  0  0
   -6.2210  -10.1900   10.3628 C   0  0  0  0  0  0  0  0  0  0  0  0
   -5.1053   -9.4737   10.8160 C   0  0  0  0  0  0  0  0  0  0  0  0
    2.0309   -6.4865   10.9006 C   0  0  0  0  0  0  0  0  0  0  0  0
    3.0923   -5.6528   10.4891 C   0  0  0  0  0  0  0  0  0  0  0  0
    3.2602   -4.4215   11.1351 C   0  0  0  0  0  0  0  0  0  0  0  0
    4.1267   -3.3823   10.8802 N   0  0  0  0  0  0  0  0  0  0  0  0
    4.2817   -0.3244   12.1736 H   0  0  0  0  0  0  0  0  0  0  0  0
    5.1882   -0.9653   10.7962 H   0  0  0  0  0  0  0  0  0  0  0  0
    5.7049   -1.3588   12.4498 H   0  0  0  0  0  0  0  0  0  0  0  0
    2.5756   -2.1997   13.4919 H   0  0  0  0  0  0  0  0  0  0  0  0
    0.7870   -4.6049   13.4451 H   0  0  0  0  0  0  0  0  0  0  0  0
    0.4453   -7.9069   12.8456 H   0  0  0  0  0  0  0  0  0  0  0  0
   -0.5590   -6.5134   13.1830 H   0  0  0  0  0  0  0  0  0  0  0  0
   -0.7404   -7.9040   10.5703 H   0  0  0  0  0  0  0  0  0  0  0  0
   -2.0733   -8.4568    9.7307 H   0  0  0  0  0  0  0  0  0  0  0  0
   -3.3869   -9.5441    7.9096 H   0  0  0  0  0  0  0  0  0  0  0  0
   -5.4424  -10.7833    7.2580 H   0  0  0  0  0  0  0  0  0  0  0  0
   -7.0506  -10.4000   11.0328 H   0  0  0  0  0  0  0  0  0  0  0  0
   -5.0734   -9.1391   11.8497 H   0  0  0  0  0  0  0  0  0  0  0  0
    1.8954   -7.4372   10.3885 H   0  0  0  0  0  0  0  0  0  0  0  0
    3.7363   -5.9500    9.6667 H   0  0  0  0  0  0  0  0  0  0  0  0
    4.7793   -3.3578   10.1088 H   0  0  0  0  0  0  0  0  0  0  0  0
  1  2  1  0
  2  3  2  0
  3  4  1  0
  4  5  2  0
  5  6  1  0
  6  7  1  0
  7  8  1  0
  8  9  1  0
  9 10  2  0
  9 11  1  0
 11 12  1  0
 12 13  2  0
 13 14  1  0
 14 15  2  0
 15 16  1  0
 16 17  2  0
  6 18  2  0
 18 19  1  0
 19 20  2  0
 20 21  1  0
 21  2  1  0
 20  4  1  0
 17 12  1  0
  1 22  1  0
  1 23  1  0
  1 24  1  0
  3 25  1  0
  5 26  1  0
  7 27  1  0
  7 28  1  0
  8 29  1  0
 11 30  1  0
 13 31  1  0
 14 32  1  0
 16 33  1  0
 17 34  1  0
 18 35  1  0
 19 36  1  0
 21 37  1  0
M  END
>  <Energy>  (833) 
-24.836981156279457

>  <compound_id>  (833) 
58699

>  <target_id>  (833) 
1

>  <reference_id>  (833) 
97

>  <inspiration_ids>  (833) 
[97, 48]

>  <energy_score>  (833) 
11.240712980075614

>  <distance_score>  (833) 
14.3757678260589

>  <path>  (833) 
/opt/xchem-fragalysis-2/maxwin/BulkDock/SCRATCH/511025/C58699-P97/C58699-P97.minimised.mol

>  <scratch_subdir>  (833) 
/opt/xchem-fragalysis-2/maxwin/BulkDock/SCRATCH/511025/C58699-P97

>  <fragmenstein_runtime>  (833) 
14.294740676879883

>  <fragmenstein_outcome>  (833) 
too moved

>  <fragmenstein_mode>  (833) 
expansion

>  <fragmenstein_error>  (833) 


$$$$
C58699-P48
     RDKit          3D

 37 39  0  0  0  0  0  0  0  0999 V2000
    7.9278   -4.2494   15.8204 C   0  0  0  0  0  0  0  0  0  0  0  0
    6.6006   -5.8452   15.9420 C   0  0  0  0  0  0  0  0  0  0  0  0
    6.2010   -7.2595   15.0193 C   0  0  0  0  0  0  0  0  0  0  0  0
    4.7885   -7.9819   14.8021 C   0  0  0  0  0  0  0  0  0  0  0  0
    3.9221   -9.1204   13.7896 C   0  0  0  0  0  0  0  0  0  0  0  0
    2.3538   -9.5701   13.6074 C   0  0  0  0  0  0  0  0  0  0  0  0
    1.2435  -10.8267   12.5228 C   0  0  0  0  0  0  0  0  0  0  0  0
    0.3865  -12.1174   13.5168 N   0  0  0  0  0  0  0  0  0  0  0  0
   -0.5944  -13.6879   13.0594 C   0  0  0  0  0  0  0  0  0  0  0  0
   -0.7050  -14.1144   11.9304 O   0  0  0  0  0  0  0  0  0  0  0  0
   -1.5977  -14.4857   14.6097 N   0  0  0  0  0  0  0  0  0  0  0  0
   -3.0465  -15.9630   14.7177 C   0  0  0  0  0  0  0  0  0  0  0  0
   -4.6153  -16.1907   14.0334 C   0  0  0  0  0  0  0  0  0  0  0  0
   -5.9960  -17.0040   13.6136 C   0  0  0  0  0  0  0  0  0  0  0  0
   -6.1413  -18.2763   13.4746 N   0  0  0  0  0  0  0  0  0  0  0  0
   -4.9071  -18.5699   13.9085 C   0  0  0  0  0  0  0  0  0  0  0  0
   -3.4408  -17.4535   14.5142 C   0  0  0  0  0  0  0  0  0  0  0  0
    1.8435   -8.6211   14.5659 C   0  0  0  0  0  0  0  0  0  0  0  0
    2.6350   -7.5356   15.5804 C   0  0  0  0  0  0  0  0  0  0  0  0
    4.1003   -7.2181   15.7238 C   0  0  0  0  0  0  0  0  0  0  0  0
    5.0859   -6.2412   16.5892 N   0  0  0  0  0  0  0  0  0  0  0  0
    8.7530   -4.2022   15.0254 H   0  0  0  0  0  0  0  0  0  0  0  0
    7.1151   -3.3528   15.2934 H   0  0  0  0  0  0  0  0  0  0  0  0
    8.0315   -3.1752   16.0643 H   0  0  0  0  0  0  0  0  0  0  0  0
    6.9143   -7.6476   14.3344 H   0  0  0  0  0  0  0  0  0  0  0  0
    4.6427   -9.5768   13.1045 H   0  0  0  0  0  0  0  0  0  0  0  0
    1.6058  -11.0205   11.5089 H   0  0  0  0  0  0  0  0  0  0  0  0
    0.3922  -10.1431   12.3881 H   0  0  0  0  0  0  0  0  0  0  0  0
    0.4094  -12.0220   14.4155 H   0  0  0  0  0  0  0  0  0  0  0  0
   -1.2902  -14.0280   15.4957 H   0  0  0  0  0  0  0  0  0  0  0  0
   -4.8957  -15.2615   13.3385 H   0  0  0  0  0  0  0  0  0  0  0  0
   -6.9081  -16.5912   13.9443 H   0  0  0  0  0  0  0  0  0  0  0  0
   -4.5706  -19.4166   13.1603 H   0  0  0  0  0  0  0  0  0  0  0  0
   -2.4680  -17.9838   14.5524 H   0  0  0  0  0  0  0  0  0  0  0  0
    0.7549   -8.5479   14.6595 H   0  0  0  0  0  0  0  0  0  0  0  0
    1.9490   -6.9616   16.2119 H   0  0  0  0  0  0  0  0  0  0  0  0
    4.6579   -5.5634   17.1956 H   0  0  0  0  0  0  0  0  0  0  0  0
  1  2  1  0
  2  3  2  0
  3  4  1  0
  4  5  2  0
  5  6  1  0
  6  7  1  0
  7  8  1  0
  8  9  1  0
  9 10  2  0
  9 11  1  0
 11 12  1  0
 12 13  2  0
 13 14  1  0
 14 15  2  0
 15 16  1  0
 16 17  2  0
  6 18  2  0
 18 19  1  0
 19 20  2  0
 20 21  1  0
 21  2  1  0
 20  4  1  0
 17 12  1  0
  1 22  1  0
  1 23  1  0
  1 24  1  0
  3 25  1  0
  5 26  1  0
  7 27  1  0
  7 28  1  0
  8 29  1  0
 11 30  1  0
 13 31  1  0
 14 32  1  0
 16 33  1  0
 17 34  1  0
 18 35  1  0
 19 36  1  0
 21 37  1  0
M  END
>  <Energy>  (834) 
1159.644111992443

>  <compound_id>  (834) 
58699

>  <target_id>  (834) 
1

>  <reference_id>  (834) 
48

>  <inspiration_ids>  (834) 
[97, 48]

>  <energy_score>  (834) 
1195.7218061287952

>  <distance_score>  (834) 
11.931043341751858

>  <path>  (834) 
/opt/xchem-fragalysis-2/maxwin/BulkDock/SCRATCH/511025/C58699-P48/C58699-P48.minimised.mol

>  <scratch_subdir>  (834) 
/opt/xchem-fragalysis-2/maxwin/BulkDock/SCRATCH/511025/C58699-P48

>  <fragmenstein_runtime>  (834) 
11.6618971824646

>  <fragmenstein_outcome>  (834) 
too moved

>  <fragmenstein_mode>  (834) 
expansion

>  <fragmenstein_error>  (834) 


$$$$
C8334-P97
     RDKit          3D

 37 39  0  0  0  0  0  0  0  0999 V2000
   12.5399   -7.8302    9.3004 C   0  0  0  0  0  0  0  0  0  0  0  0
   11.3283   -8.6728    9.4315 C   0  0  0  0  0  0  0  0  0  0  0  0
   11.1694  -10.0210    9.6775 C   0  0  0  0  0  0  0  0  0  0  0  0
    9.7707  -10.3076    9.7294 C   0  0  0  0  0  0  0  0  0  0  0  0
    8.9958  -11.4807    9.9404 C   0  0  0  0  0  0  0  0  0  0  0  0
    7.5778  -11.4410    9.9416 C   0  0  0  0  0  0  0  0  0  0  0  0
    6.7553  -12.6302   10.4249 C   0  0  0  0  0  0  0  0  0  0  0  0
    6.0269  -13.6271    9.6201 N   0  0  0  0  0  0  0  0  0  0  0  0
    4.5283  -13.8318    9.4076 C   0  0  0  0  0  0  0  0  0  0  0  0
    3.6267  -13.1789    9.7801 O   0  0  0  0  0  0  0  0  0  0  0  0
    4.5280  -15.1790    8.6696 N   0  0  0  0  0  0  0  0  0  0  0  0
    3.4461  -16.0522    8.3217 C   0  0  0  0  0  0  0  0  0  0  0  0
    3.6147  -17.0761    7.3903 C   0  0  0  0  0  0  0  0  0  0  0  0
    2.6189  -18.0672    7.2056 C   0  0  0  0  0  0  0  0  0  0  0  0
    1.4834  -18.0686    7.9966 C   0  0  0  0  0  0  0  0  0  0  0  0
    1.3992  -17.0604    8.9288 C   0  0  0  0  0  0  0  0  0  0  0  0
    2.3228  -16.0573    9.0742 N   0  0  0  0  0  0  0  0  0  0  0  0
    6.9677  -10.1912    9.7494 C   0  0  0  0  0  0  0  0  0  0  0  0
    7.7092   -9.0089    9.5533 C   0  0  0  0  0  0  0  0  0  0  0  0
    9.1051   -9.1024    9.5348 C   0  0  0  0  0  0  0  0  0  0  0  0
   10.0667   -8.1326    9.3584 N   0  0  0  0  0  0  0  0  0  0  0  0
   13.4459   -8.4149    9.4882 H   0  0  0  0  0  0  0  0  0  0  0  0
   12.5162   -7.0010   10.0145 H   0  0  0  0  0  0  0  0  0  0  0  0
   12.6085   -7.4137    8.2904 H   0  0  0  0  0  0  0  0  0  0  0  0
   11.9712  -10.7358    9.8047 H   0  0  0  0  0  0  0  0  0  0  0  0
    9.5129  -12.4156   10.1397 H   0  0  0  0  0  0  0  0  0  0  0  0
    6.0042  -12.2268   11.1177 H   0  0  0  0  0  0  0  0  0  0  0  0
    7.4108  -13.2366   11.0643 H   0  0  0  0  0  0  0  0  0  0  0  0
    6.5249  -14.4096    9.2415 H   0  0  0  0  0  0  0  0  0  0  0  0
    5.4653  -15.4236    8.4242 H   0  0  0  0  0  0  0  0  0  0  0  0
    4.5207  -17.1264    6.7952 H   0  0  0  0  0  0  0  0  0  0  0  0
    2.7652  -18.8463    6.4626 H   0  0  0  0  0  0  0  0  0  0  0  0
    0.7135  -18.8259    7.9169 H   0  0  0  0  0  0  0  0  0  0  0  0
    0.5681  -17.0168    9.6278 H   0  0  0  0  0  0  0  0  0  0  0  0
    5.8807  -10.1178    9.7909 H   0  0  0  0  0  0  0  0  0  0  0  0
    7.2060   -8.0581    9.4155 H   0  0  0  0  0  0  0  0  0  0  0  0
    9.8719   -7.1383    9.3535 H   0  0  0  0  0  0  0  0  0  0  0  0
  1  2  1  0
  2  3  2  0
  3  4  1  0
  4  5  2  0
  5  6  1  0
  6  7  1  0
  7  8  1  0
  8  9  1  0
  9 10  2  0
  9 11  1  0
 11 12  1  0
 12 13  2  0
 13 14  1  0
 14 15  2  0
 15 16  1  0
 16 17  2  0
  6 18  2  0
 18 19  1  0
 19 20  2  0
 20 21  1  0
 21  2  1  0
 20  4  1  0
 17 12  1  0
  1 22  1  0
  1 23  1  0
  1 24  1  0
  3 25  1  0
  5 26  1  0
  7 27  1  0
  7 28  1  0
  8 29  1  0
 11 30  1  0
 13 31  1  0
 14 32  1  0
 15 33  1  0
 16 34  1  0
 18 35  1  0
 19 36  1  0
 21 37  1  0
M  END
>  <Energy>  (835) 
-26.409129672645811

>  <compound_id>  (835) 
8334

>  <target_id>  (835) 
1

>  <reference_id>  (835) 
97

>  <inspiration_ids>  (835) 
[97, 48]

>  <energy_score>  (835) 
32.186659244064856

>  <distance_score>  (835) 
13.910628573589381

>  <path>  (835) 
/opt/xchem-fragalysis-2/maxwin/BulkDock/SCRATCH/511025/C8334-P97/C8334-P97.minimised.mol

>  <scratch_subdir>  (835) 
/opt/xchem-fragalysis-2/maxwin/BulkDock/SCRATCH/511025/C8334-P97

>  <fragmenstein_runtime>  (835) 
13.064354658126831

>  <fragmenstein_outcome>  (835) 
too moved

>  <fragmenstein_mode>  (835) 
expansion

>  <fragmenstein_error>  (835) 


$$$$
C8334-P48
     RDKit          3D

 37 39  0  0  0  0  0  0  0  0999 V2000
    8.6321  -11.7255   13.7924 C   0  0  0  0  0  0  0  0  0  0  0  0
    7.4419  -10.9304   14.1729 C   0  0  0  0  0  0  0  0  0  0  0  0
    6.4355  -10.3384   13.4281 C   0  0  0  0  0  0  0  0  0  0  0  0
    5.3715  -10.0533   14.3373 C   0  0  0  0  0  0  0  0  0  0  0  0
    3.9813   -9.8756   14.1448 C   0  0  0  0  0  0  0  0  0  0  0  0
    3.1592  -10.6089   15.0778 C   0  0  0  0  0  0  0  0  0  0  0  0
    1.7469  -11.8635   14.4805 C   0  0  0  0  0  0  0  0  0  0  0  0
    0.5992  -12.5212   13.2028 N   0  0  0  0  0  0  0  0  0  0  0  0
    0.6718  -13.8021   12.3148 C   0  0  0  0  0  0  0  0  0  0  0  0
    1.5382  -14.4570   12.3063 O   0  0  0  0  0  0  0  0  0  0  0  0
   -0.5301  -14.0609   11.6310 N   0  0  0  0  0  0  0  0  0  0  0  0
   -0.9827  -15.2488   10.8479 C   0  0  0  0  0  0  0  0  0  0  0  0
    0.1054  -16.2396   10.6051 C   0  0  0  0  0  0  0  0  0  0  0  0
    0.1790  -17.1366    9.4658 C   0  0  0  0  0  0  0  0  0  0  0  0
   -0.9711  -17.3251    8.6418 C   0  0  0  0  0  0  0  0  0  0  0  0
   -2.1161  -16.6511    9.1378 C   0  0  0  0  0  0  0  0  0  0  0  0
   -2.1684  -15.4712   10.1337 N   0  0  0  0  0  0  0  0  0  0  0  0
    3.6910  -10.7090   16.4039 C   0  0  0  0  0  0  0  0  0  0  0  0
    5.0282  -10.4048   16.7215 C   0  0  0  0  0  0  0  0  0  0  0  0
    5.8548  -10.3136   15.6117 C   0  0  0  0  0  0  0  0  0  0  0  0
    7.1985  -10.5701   15.4795 N   0  0  0  0  0  0  0  0  0  0  0  0
    8.5215  -12.7573   14.1419 H   0  0  0  0  0  0  0  0  0  0  0  0
    9.5441  -11.3129   14.2350 H   0  0  0  0  0  0  0  0  0  0  0  0
    8.7570  -11.7529   12.7056 H   0  0  0  0  0  0  0  0  0  0  0  0
    6.3616  -10.3518   12.3492 H   0  0  0  0  0  0  0  0  0  0  0  0
    3.6358   -9.6544   13.1388 H   0  0  0  0  0  0  0  0  0  0  0  0
    0.9573  -11.3310   14.6860 H   0  0  0  0  0  0  0  0  0  0  0  0
    1.9021  -12.5690   15.2614 H   0  0  0  0  0  0  0  0  0  0  0  0
   -0.3181  -12.1213   13.1135 H   0  0  0  0  0  0  0  0  0  0  0  0
   -1.1111  -13.2834   11.7336 H   0  0  0  0  0  0  0  0  0  0  0  0
    1.0205  -16.2112   11.1821 H   0  0  0  0  0  0  0  0  0  0  0  0
    1.0799  -17.7202    9.2968 H   0  0  0  0  0  0  0  0  0  0  0  0
   -1.0098  -18.0662    7.8532 H   0  0  0  0  0  0  0  0  0  0  0  0
   -3.0666  -16.9779    8.7749 H   0  0  0  0  0  0  0  0  0  0  0  0
    3.1379  -11.1889   17.2104 H   0  0  0  0  0  0  0  0  0  0  0  0
    5.4152  -10.6050   17.7147 H   0  0  0  0  0  0  0  0  0  0  0  0
    7.8300  -10.7338   16.2496 H   0  0  0  0  0  0  0  0  0  0  0  0
  1  2  1  0
  2  3  2  0
  3  4  1  0
  4  5  2  0
  5  6  1  0
  6  7  1  0
  7  8  1  0
  8  9  1  0
  9 10  2  0
  9 11  1  0
 11 12  1  0
 12 13  2  0
 13 14  1  0
 14 15  2  0
 15 16  1  0
 16 17  2  0
  6 18  2  0
 18 19  1  0
 19 20  2  0
 20 21  1  0
 21  2  1  0
 20  4  1  0
 17 12  1  0
  1 22  1  0
  1 23  1  0
  1 24  1  0
  3 25  1  0
  5 26  1  0
  7 27  1  0
  7 28  1  0
  8 29  1  0
 11 30  1  0
 13 31  1  0
 14 32  1  0
 15 33  1  0
 16 34  1  0
 18 35  1  0
 19 36  1  0
 21 37  1  0
M  END
>  <Energy>  (836) 
193.41766133006774

>  <compound_id>  (836) 
8334

>  <target_id>  (836) 
1

>  <reference_id>  (836) 
48

>  <inspiration_ids>  (836) 
[97, 48]

>  <energy_score>  (836) 
252.01345024678358

>  <distance_score>  (836) 
13.337428889046071

>  <path>  (836) 
/opt/xchem-fragalysis-2/maxwin/BulkDock/SCRATCH/511025/C8334-P48/C8334-P48.minimised.mol

>  <scratch_subdir>  (836) 
/opt/xchem-fragalysis-2/maxwin/BulkDock/SCRATCH/511025/C8334-P48

>  <fragmenstein_runtime>  (836) 
13.276309251785278

>  <fragmenstein_outcome>  (836) 
too moved

>  <fragmenstein_mode>  (836) 
expansion

>  <fragmenstein_error>  (836) 


$$$$
C41248-P97
     RDKit          3D

 43 45  0  0  0  0  0  0  0  0999 V2000
    0.2991  -12.1803   19.3028 O   0  0  0  0  0  0  0  0  0  0  0  0
   -0.2217  -11.1195   19.0866 C   0  0  0  0  0  0  0  0  0  0  0  0
   -1.8165  -11.0303   19.3700 C   0  0  0  0  0  0  0  0  0  0  0  0
   -2.7166  -12.1125   18.7713 N   0  0  0  0  0  0  0  0  0  0  0  0
   -2.3342  -13.5002   19.1204 C   0  0  0  0  0  0  0  0  0  0  0  0
   -3.2582  -14.6079   18.4915 C   0  0  0  0  0  0  0  0  0  0  0  0
   -4.6980  -14.4932   18.8487 N   0  0  0  0  0  0  0  0  0  0  0  0
   -5.5816  -15.4487   18.2159 C   0  0  0  0  0  0  0  0  0  0  0  0
   -5.2214  -16.8011   18.0693 C   0  0  0  0  0  0  0  0  0  0  0  0
   -6.0386  -17.7175   17.3738 C   0  0  0  0  0  0  0  0  0  0  0  0
   -7.2340  -17.2919   16.8268 C   0  0  0  0  0  0  0  0  0  0  0  0
   -7.5673  -15.9699   17.0438 C   0  0  0  0  0  0  0  0  0  0  0  0
   -6.7943  -15.0700   17.7302 N   0  0  0  0  0  0  0  0  0  0  0  0
   -5.1848  -13.0862   18.7909 C   0  0  0  0  0  0  0  0  0  0  0  0
   -4.1300  -11.9945   19.2703 C   0  0  0  0  0  0  0  0  0  0  0  0
    0.3657   -9.8285   18.6645 N   0  0  0  0  0  0  0  0  0  0  0  0
    1.7787   -9.4668   18.2791 C   0  0  0  0  0  0  0  0  0  0  0  0
    2.2017   -7.9553   18.2954 C   0  0  0  0  0  0  0  0  0  0  0  0
    3.6296   -7.6233   17.8753 C   0  0  0  0  0  0  0  0  0  0  0  0
    4.5658   -7.1374   18.6767 N   0  0  0  0  0  0  0  0  0  0  0  0
    5.7418   -6.8190   18.0146 N   0  0  0  0  0  0  0  0  0  0  0  0
    5.6515   -7.0736   16.7295 C   0  0  0  0  0  0  0  0  0  0  0  0
    4.1297   -7.6755   16.2219 S   0  0  0  0  0  0  0  0  0  0  0  0
   -2.1769  -10.0675   18.9925 H   0  0  0  0  0  0  0  0  0  0  0  0
   -1.9241  -11.0263   20.4619 H   0  0  0  0  0  0  0  0  0  0  0  0
   -1.3298  -13.6997   18.7527 H   0  0  0  0  0  0  0  0  0  0  0  0
   -2.3171  -13.6281   20.2108 H   0  0  0  0  0  0  0  0  0  0  0  0
   -2.8727  -15.5625   18.8618 H   0  0  0  0  0  0  0  0  0  0  0  0
   -3.1386  -14.5819   17.4023 H   0  0  0  0  0  0  0  0  0  0  0  0
   -4.2973  -17.1673   18.4986 H   0  0  0  0  0  0  0  0  0  0  0  0
   -5.7233  -18.7487   17.2750 H   0  0  0  0  0  0  0  0  0  0  0  0
   -7.8861  -17.9559   16.2747 H   0  0  0  0  0  0  0  0  0  0  0  0
   -8.4982  -15.5594   16.6624 H   0  0  0  0  0  0  0  0  0  0  0  0
   -6.0671  -12.9937   19.4369 H   0  0  0  0  0  0  0  0  0  0  0  0
   -5.5074  -12.8302   17.7782 H   0  0  0  0  0  0  0  0  0  0  0  0
   -4.5214  -11.0124   18.9782 H   0  0  0  0  0  0  0  0  0  0  0  0
   -4.1196  -12.0176   20.3690 H   0  0  0  0  0  0  0  0  0  0  0  0
   -0.3798   -9.1642   18.4957 H   0  0  0  0  0  0  0  0  0  0  0  0
    2.4354  -10.0452   18.9389 H   0  0  0  0  0  0  0  0  0  0  0  0
    1.9182   -9.8713   17.2705 H   0  0  0  0  0  0  0  0  0  0  0  0
    2.0480   -7.5743   19.3131 H   0  0  0  0  0  0  0  0  0  0  0  0
    1.5071   -7.3940   17.6575 H   0  0  0  0  0  0  0  0  0  0  0  0
    6.4725   -6.9229   16.0481 H   0  0  0  0  0  0  0  0  0  0  0  0
  1  2  2  0
  2  3  1  0
  3  4  1  0
  4  5  1  0
  5  6  1  0
  6  7  1  0
  7  8  1  0
  8  9  2  0
  9 10  1  0
 10 11  2  0
 11 12  1  0
 12 13  2  0
  7 14  1  0
 14 15  1  0
  2 16  1  0
 16 17  1  0
 17 18  1  0
 18 19  1  0
 19 20  2  0
 20 21  1  0
 21 22  2  0
 22 23  1  0
 15  4  1  0
 23 19  1  0
 13  8  1  0
  3 24  1  0
  3 25  1  0
  5 26  1  0
  5 27  1  0
  6 28  1  0
  6 29  1  0
  9 30  1  0
 10 31  1  0
 11 32  1  0
 12 33  1  0
 14 34  1  0
 14 35  1  0
 15 36  1  0
 15 37  1  0
 16 38  1  0
 17 39  1  0
 17 40  1  0
 18 41  1  0
 18 42  1  0
 22 43  1  0
M  END
>  <Energy>  (837) 
109.85446139655629

>  <compound_id>  (837) 
41248

>  <target_id>  (837) 
1

>  <reference_id>  (837) 
97

>  <inspiration_ids>  (837) 
[97, 48]

>  <energy_score>  (837) 
-61.59971060699115

>  <distance_score>  (837) 
15.204188858486065

>  <path>  (837) 
/opt/xchem-fragalysis-2/maxwin/BulkDock/SCRATCH/511025/C41248-P97/C41248-P97.minimised.mol

>  <scratch_subdir>  (837) 
/opt/xchem-fragalysis-2/maxwin/BulkDock/SCRATCH/511025/C41248-P97

>  <fragmenstein_runtime>  (837) 
13.386247634887695

>  <fragmenstein_outcome>  (837) 
too moved

>  <fragmenstein_mode>  (837) 
expansion

>  <fragmenstein_error>  (837) 


$$$$
C41248-P48
     RDKit          3D

 43 45  0  0  0  0  0  0  0  0999 V2000
   -0.2376  -17.7937    7.3185 O   0  0  0  0  0  0  0  0  0  0  0  0
    0.8431  -18.1729    7.6716 C   0  0  0  0  0  0  0  0  0  0  0  0
    1.1382  -19.7200    7.5010 C   0  0  0  0  0  0  0  0  0  0  0  0
    0.3356  -20.4685    6.4665 N   0  0  0  0  0  0  0  0  0  0  0  0
   -1.0693  -20.0589    6.2703 C   0  0  0  0  0  0  0  0  0  0  0  0
   -1.9388  -21.0800    5.4770 C   0  0  0  0  0  0  0  0  0  0  0  0
   -2.0659  -22.3558    6.2048 N   0  0  0  0  0  0  0  0  0  0  0  0
   -3.3205  -22.8892    6.5232 C   0  0  0  0  0  0  0  0  0  0  0  0
   -4.4069  -22.7757    5.6444 C   0  0  0  0  0  0  0  0  0  0  0  0
   -5.6533  -23.3469    5.9417 C   0  0  0  0  0  0  0  0  0  0  0  0
   -5.8141  -24.0417    7.1240 C   0  0  0  0  0  0  0  0  0  0  0  0
   -4.7115  -24.1295    7.9473 C   0  0  0  0  0  0  0  0  0  0  0  0
   -3.4939  -23.5851    7.6716 N   0  0  0  0  0  0  0  0  0  0  0  0
   -0.9029  -22.6714    7.0616 C   0  0  0  0  0  0  0  0  0  0  0  0
    0.4116  -21.9436    6.6088 C   0  0  0  0  0  0  0  0  0  0  0  0
    1.9317  -17.4554    8.3380 N   0  0  0  0  0  0  0  0  0  0  0  0
    1.9945  -16.1016    8.8579 C   0  0  0  0  0  0  0  0  0  0  0  0
    3.2333  -15.2068    9.4494 C   0  0  0  0  0  0  0  0  0  0  0  0
    3.8463  -13.3773    9.4823 C   0  0  0  0  0  0  0  0  0  0  0  0
    3.1779  -12.2330    9.3643 N   0  0  0  0  0  0  0  0  0  0  0  0
    3.8300  -11.0746    9.8103 N   0  0  0  0  0  0  0  0  0  0  0  0
    5.0751  -11.2571   10.1836 C   0  0  0  0  0  0  0  0  0  0  0  0
    5.6593  -12.8693   10.1455 S   0  0  0  0  0  0  0  0  0  0  0  0
    2.1999  -19.8464    7.2644 H   0  0  0  0  0  0  0  0  0  0  0  0
    0.9470  -20.1608    8.4876 H   0  0  0  0  0  0  0  0  0  0  0  0
   -1.0905  -19.1340    5.6852 H   0  0  0  0  0  0  0  0  0  0  0  0
   -1.5564  -19.8888    7.2390 H   0  0  0  0  0  0  0  0  0  0  0  0
   -1.4756  -21.2781    4.5024 H   0  0  0  0  0  0  0  0  0  0  0  0
   -2.9060  -20.6133    5.2722 H   0  0  0  0  0  0  0  0  0  0  0  0
   -4.2857  -22.2672    4.6933 H   0  0  0  0  0  0  0  0  0  0  0  0
   -6.4781  -23.2489    5.2427 H   0  0  0  0  0  0  0  0  0  0  0  0
   -6.7616  -24.4914    7.3957 H   0  0  0  0  0  0  0  0  0  0  0  0
   -4.7640  -24.6637    8.8910 H   0  0  0  0  0  0  0  0  0  0  0  0
   -1.0916  -22.3574    8.0842 H   0  0  0  0  0  0  0  0  0  0  0  0
   -0.7256  -23.7531    7.0579 H   0  0  0  0  0  0  0  0  0  0  0  0
    1.2276  -22.2308    7.2833 H   0  0  0  0  0  0  0  0  0  0  0  0
    0.6856  -22.3409    5.6228 H   0  0  0  0  0  0  0  0  0  0  0  0
    2.6719  -18.1116    8.5631 H   0  0  0  0  0  0  0  0  0  0  0  0
    1.3747  -15.5607    8.1512 H   0  0  0  0  0  0  0  0  0  0  0  0
    1.3131  -16.2758    9.7133 H   0  0  0  0  0  0  0  0  0  0  0  0
    3.9947  -15.8978    9.8464 H   0  0  0  0  0  0  0  0  0  0  0  0
    2.5007  -15.0888   10.2050 H   0  0  0  0  0  0  0  0  0  0  0  0
    5.6994  -10.4389   10.5124 H   0  0  0  0  0  0  0  0  0  0  0  0
  1  2  2  0
  2  3  1  0
  3  4  1  0
  4  5  1  0
  5  6  1  0
  6  7  1  0
  7  8  1  0
  8  9  2  0
  9 10  1  0
 10 11  2  0
 11 12  1  0
 12 13  2  0
  7 14  1  0
 14 15  1  0
  2 16  1  0
 16 17  1  0
 17 18  1  0
 18 19  1  0
 19 20  2  0
 20 21  1  0
 21 22  2  0
 22 23  1  0
 15  4  1  0
 23 19  1  0
 13  8  1  0
  3 24  1  0
  3 25  1  0
  5 26  1  0
  5 27  1  0
  6 28  1  0
  6 29  1  0
  9 30  1  0
 10 31  1  0
 11 32  1  0
 12 33  1  0
 14 34  1  0
 14 35  1  0
 15 36  1  0
 15 37  1  0
 16 38  1  0
 17 39  1  0
 17 40  1  0
 18 41  1  0
 18 42  1  0
 22 43  1  0
M  END
>  <Energy>  (838) 
227.24419621932518

>  <compound_id>  (838) 
41248

>  <target_id>  (838) 
1

>  <reference_id>  (838) 
48

>  <inspiration_ids>  (838) 
[97, 48]

>  <energy_score>  (838) 
55.79002421577745

>  <distance_score>  (838) 
16.216734775184506

>  <path>  (838) 
/opt/xchem-fragalysis-2/maxwin/BulkDock/SCRATCH/511025/C41248-P48/C41248-P48.minimised.mol

>  <scratch_subdir>  (838) 
/opt/xchem-fragalysis-2/maxwin/BulkDock/SCRATCH/511025/C41248-P48

>  <fragmenstein_runtime>  (838) 
13.562410593032837

>  <fragmenstein_outcome>  (838) 
too moved

>  <fragmenstein_mode>  (838) 
expansion

>  <fragmenstein_error>  (838) 


$$$$
C41250-P97
     RDKit          3D

 41 43  0  0  0  0  0  0  0  0999 V2000
    9.1677  -10.3561   16.4468 O   0  0  0  0  0  0  0  0  0  0  0  0
   10.1357  -10.4345   15.7491 C   0  0  0  0  0  0  0  0  0  0  0  0
   11.4781   -9.2036   15.9840 C   0  0  0  0  0  0  0  0  0  0  0  0
   12.0760   -7.1523   16.1397 C   0  0  0  0  0  0  0  0  0  0  0  0
   11.3978   -5.9334   16.1963 C   0  0  0  0  0  0  0  0  0  0  0  0
   11.6677   -4.3907   15.9526 C   0  0  0  0  0  0  0  0  0  0  0  0
   13.0354   -4.3040   16.4189 C   0  0  0  0  0  0  0  0  0  0  0  0
   13.3404   -5.8025   16.5148 C   0  0  0  0  0  0  0  0  0  0  0  0
   10.5128  -11.4536   14.7426 N   0  0  0  0  0  0  0  0  0  0  0  0
    9.8534  -12.7503   14.3592 C   0  0  0  0  0  0  0  0  0  0  0  0
    8.5272  -12.8139   13.5419 C   0  0  0  0  0  0  0  0  0  0  0  0
    8.1191  -14.2653   12.9694 C   0  0  0  0  0  0  0  0  0  0  0  0
    6.9667  -14.9453   13.1105 N   0  0  0  0  0  0  0  0  0  0  0  0
    6.8937  -16.1254   12.2653 C   0  0  0  0  0  0  0  0  0  0  0  0
    5.7116  -17.0912   12.0581 C   0  0  0  0  0  0  0  0  0  0  0  0
    5.2696  -17.4551   10.7667 C   0  0  0  0  0  0  0  0  0  0  0  0
    4.1798  -18.3366   10.5798 C   0  0  0  0  0  0  0  0  0  0  0  0
    3.5583  -18.8886   11.6843 C   0  0  0  0  0  0  0  0  0  0  0  0
    4.0714  -18.5302   12.9198 C   0  0  0  0  0  0  0  0  0  0  0  0
    5.1084  -17.6504   13.1332 N   0  0  0  0  0  0  0  0  0  0  0  0
    8.0707  -16.3026   11.5595 C   0  0  0  0  0  0  0  0  0  0  0  0
    9.2087  -15.0485   11.8698 S   0  0  0  0  0  0  0  0  0  0  0  0
   12.2142   -9.8347   15.3887 H   0  0  0  0  0  0  0  0  0  0  0  0
   11.5389   -9.7158   16.9493 H   0  0  0  0  0  0  0  0  0  0  0  0
   10.9568   -5.6572   17.1231 H   0  0  0  0  0  0  0  0  0  0  0  0
   11.0428   -3.7365   16.5395 H   0  0  0  0  0  0  0  0  0  0  0  0
   11.4940   -4.0415   14.9279 H   0  0  0  0  0  0  0  0  0  0  0  0
   13.7011   -3.7429   15.7621 H   0  0  0  0  0  0  0  0  0  0  0  0
   13.1031   -3.8148   17.4000 H   0  0  0  0  0  0  0  0  0  0  0  0
   14.2783   -5.8903   15.9453 H   0  0  0  0  0  0  0  0  0  0  0  0
   13.4873   -5.7796   17.6124 H   0  0  0  0  0  0  0  0  0  0  0  0
   11.4394  -11.2524   14.3992 H   0  0  0  0  0  0  0  0  0  0  0  0
    9.6890  -13.2811   15.3046 H   0  0  0  0  0  0  0  0  0  0  0  0
   10.6355  -13.2981   13.8230 H   0  0  0  0  0  0  0  0  0  0  0  0
    7.6949  -12.4607   14.1617 H   0  0  0  0  0  0  0  0  0  0  0  0
    8.5972  -12.1445   12.6769 H   0  0  0  0  0  0  0  0  0  0  0  0
    5.7520  -17.0235    9.8941 H   0  0  0  0  0  0  0  0  0  0  0  0
    3.8396  -18.5800    9.5774 H   0  0  0  0  0  0  0  0  0  0  0  0
    2.7233  -19.5726   11.5989 H   0  0  0  0  0  0  0  0  0  0  0  0
    3.6534  -18.9505   13.8315 H   0  0  0  0  0  0  0  0  0  0  0  0
    8.3208  -17.0920   10.8656 H   0  0  0  0  0  0  0  0  0  0  0  0
  1  2  2  0
  2  3  1  0
  3  4  1  0
  4  5  2  0
  5  6  1  0
  6  7  1  0
  7  8  1  0
  2  9  1  0
  9 10  1  0
 10 11  1  0
 11 12  1  0
 12 13  2  0
 13 14  1  0
 14 15  1  0
 15 16  2  0
 16 17  1  0
 17 18  2  0
 18 19  1  0
 19 20  2  0
 14 21  2  0
 21 22  1  0
  8  4  1  0
 22 12  1  0
 20 15  1  0
  3 23  1  0
  3 24  1  0
  5 25  1  0
  6 26  1  0
  6 27  1  0
  7 28  1  0
  7 29  1  0
  8 30  1  0
  8 31  1  0
  9 32  1  0
 10 33  1  0
 10 34  1  0
 11 35  1  0
 11 36  1  0
 16 37  1  0
 17 38  1  0
 18 39  1  0
 19 40  1  0
 21 41  1  0
M  END
>  <Energy>  (839) 
435.28805817781114

>  <compound_id>  (839) 
41250

>  <target_id>  (839) 
1

>  <reference_id>  (839) 
97

>  <inspiration_ids>  (839) 
[97, 48]

>  <energy_score>  (839) 
331.57868389349767

>  <distance_score>  (839) 
12.758008289346622

>  <path>  (839) 
/opt/xchem-fragalysis-2/maxwin/BulkDock/SCRATCH/511025/C41250-P97/C41250-P97.minimised.mol

>  <scratch_subdir>  (839) 
/opt/xchem-fragalysis-2/maxwin/BulkDock/SCRATCH/511025/C41250-P97

>  <fragmenstein_runtime>  (839) 
11.86339282989502

>  <fragmenstein_outcome>  (839) 
too moved

>  <fragmenstein_mode>  (839) 
expansion

>  <fragmenstein_error>  (839) 


$$$$
C41250-P48
     RDKit          3D

 41 43  0  0  0  0  0  0  0  0999 V2000
   10.9672   -4.8262    8.5696 O   0  0  0  0  0  0  0  0  0  0  0  0
   11.4197   -5.4762    9.4752 C   0  0  0  0  0  0  0  0  0  0  0  0
   11.9981   -4.7010   11.0486 C   0  0  0  0  0  0  0  0  0  0  0  0
   12.0083   -3.6116   12.5825 C   0  0  0  0  0  0  0  0  0  0  0  0
   11.4183   -3.5818   13.8041 C   0  0  0  0  0  0  0  0  0  0  0  0
   11.8687   -2.5104   14.7522 C   0  0  0  0  0  0  0  0  0  0  0  0
   12.7283   -1.6472   13.8659 C   0  0  0  0  0  0  0  0  0  0  0  0
   13.2566   -2.6461   12.8504 C   0  0  0  0  0  0  0  0  0  0  0  0
   11.5409   -6.9790    9.6418 N   0  0  0  0  0  0  0  0  0  0  0  0
   11.0514   -8.0893    8.7927 C   0  0  0  0  0  0  0  0  0  0  0  0
   10.9750   -9.4684    9.5454 C   0  0  0  0  0  0  0  0  0  0  0  0
    9.6495  -10.3029    9.5656 C   0  0  0  0  0  0  0  0  0  0  0  0
    9.5759  -11.6255    9.7674 N   0  0  0  0  0  0  0  0  0  0  0  0
    8.2288  -12.0933    9.8543 C   0  0  0  0  0  0  0  0  0  0  0  0
    7.7777  -13.5204   10.0380 C   0  0  0  0  0  0  0  0  0  0  0  0
    7.2090  -13.9792   11.2317 C   0  0  0  0  0  0  0  0  0  0  0  0
    6.7837  -15.3187   11.3552 C   0  0  0  0  0  0  0  0  0  0  0  0
    6.9223  -16.1785   10.2810 C   0  0  0  0  0  0  0  0  0  0  0  0
    7.5046  -15.6532    9.1374 C   0  0  0  0  0  0  0  0  0  0  0  0
    7.9106  -14.3531    8.9804 N   0  0  0  0  0  0  0  0  0  0  0  0
    7.3136  -11.0635    9.7468 C   0  0  0  0  0  0  0  0  0  0  0  0
    8.0983   -9.5493    9.4989 S   0  0  0  0  0  0  0  0  0  0  0  0
   11.8407   -5.6797   11.4246 H   0  0  0  0  0  0  0  0  0  0  0  0
   13.0268   -4.6179   10.8687 H   0  0  0  0  0  0  0  0  0  0  0  0
   10.7295   -4.2715   14.2357 H   0  0  0  0  0  0  0  0  0  0  0  0
   11.0254   -1.9506   15.1666 H   0  0  0  0  0  0  0  0  0  0  0  0
   12.4413   -2.9531   15.5739 H   0  0  0  0  0  0  0  0  0  0  0  0
   12.1270   -0.8753   13.3702 H   0  0  0  0  0  0  0  0  0  0  0  0
   13.5290   -1.1482   14.4200 H   0  0  0  0  0  0  0  0  0  0  0  0
   14.0669   -3.2033   13.3320 H   0  0  0  0  0  0  0  0  0  0  0  0
   13.6968   -2.1271   11.9958 H   0  0  0  0  0  0  0  0  0  0  0  0
   12.0476   -7.1797   10.4906 H   0  0  0  0  0  0  0  0  0  0  0  0
   10.0884   -7.7760    8.3818 H   0  0  0  0  0  0  0  0  0  0  0  0
   11.7458   -8.1726    7.9511 H   0  0  0  0  0  0  0  0  0  0  0  0
   11.7261  -10.1261    9.0869 H   0  0  0  0  0  0  0  0  0  0  0  0
   11.2824   -9.3513   10.5898 H   0  0  0  0  0  0  0  0  0  0  0  0
    7.1308  -13.3052   12.0778 H   0  0  0  0  0  0  0  0  0  0  0  0
    6.3531  -15.6754   12.2858 H   0  0  0  0  0  0  0  0  0  0  0  0
    6.5968  -17.2096   10.3208 H   0  0  0  0  0  0  0  0  0  0  0  0
    7.6384  -16.2718    8.2528 H   0  0  0  0  0  0  0  0  0  0  0  0
    6.2355  -11.1251    9.7831 H   0  0  0  0  0  0  0  0  0  0  0  0
  1  2  2  0
  2  3  1  0
  3  4  1  0
  4  5  2  0
  5  6  1  0
  6  7  1  0
  7  8  1  0
  2  9  1  0
  9 10  1  0
 10 11  1  0
 11 12  1  0
 12 13  2  0
 13 14  1  0
 14 15  1  0
 15 16  2  0
 16 17  1  0
 17 18  2  0
 18 19  1  0
 19 20  2  0
 14 21  2  0
 21 22  1  0
  8  4  1  0
 22 12  1  0
 20 15  1  0
  3 23  1  0
  3 24  1  0
  5 25  1  0
  6 26  1  0
  6 27  1  0
  7 28  1  0
  7 29  1  0
  8 30  1  0
  8 31  1  0
  9 32  1  0
 10 33  1  0
 10 34  1  0
 11 35  1  0
 11 36  1  0
 16 37  1  0
 17 38  1  0
 18 39  1  0
 19 40  1  0
 21 41  1  0
M  END
>  <Energy>  (840) 
198.04864752638809

>  <compound_id>  (840) 
41250

>  <target_id>  (840) 
1

>  <reference_id>  (840) 
48

>  <inspiration_ids>  (840) 
[97, 48]

>  <energy_score>  (840) 
94.33927324207333

>  <distance_score>  (840) 
13.625899407246116

>  <path>  (840) 
/opt/xchem-fragalysis-2/maxwin/BulkDock/SCRATCH/511025/C41250-P48/C41250-P48.minimised.mol

>  <scratch_subdir>  (840) 
/opt/xchem-fragalysis-2/maxwin/BulkDock/SCRATCH/511025/C41250-P48

>  <fragmenstein_runtime>  (840) 
10.590641021728516

>  <fragmenstein_outcome>  (840) 
too moved

>  <fragmenstein_mode>  (840) 
expansion

>  <fragmenstein_error>  (840) 


$$$$
C63546-P66
     RDKit          3D

 45 46  0  0  0  0  0  0  0  0999 V2000
   13.0950   -1.5048   13.7192 C   0  0  0  0  0  0  0  0  0  0  0  0
   11.8579   -0.2050   13.8815 S   0  0  0  0  0  0  0  0  0  0  0  0
   10.5332   -1.0648   14.6682 C   0  0  0  0  0  0  0  0  0  0  0  0
    9.1672   -0.8315   14.4934 C   0  0  0  0  0  0  0  0  0  0  0  0
    8.2694   -1.5196   15.4093 C   0  0  0  0  0  0  0  0  0  0  0  0
    8.9361   -1.4778   16.7405 C   0  0  0  0  0  0  0  0  0  0  0  0
    8.2066   -0.5830   18.5724 C   0  0  0  0  0  0  0  0  0  0  0  0
    7.4002   -1.3344   20.2095 N   0  0  0  0  0  0  0  0  0  0  0  0
    6.1105   -0.7550   21.2572 C   0  0  0  0  0  0  0  0  0  0  0  0
    5.5939    0.2622   21.1577 O   0  0  0  0  0  0  0  0  0  0  0  0
    5.5827   -1.9149   22.5226 N   0  0  0  0  0  0  0  0  0  0  0  0
    4.3867   -1.7551   23.8557 C   0  0  0  0  0  0  0  0  0  0  0  0
    4.1795   -1.4626   25.6363 C   0  0  0  0  0  0  0  0  0  0  0  0
    5.5037   -1.0968   26.3674 C   0  0  0  0  0  0  0  0  0  0  0  0
    3.6563   -2.7332   26.1373 O   0  0  0  0  0  0  0  0  0  0  0  0
    3.0502   -0.5616   26.2384 C   0  0  0  0  0  0  0  0  0  0  0  0
    3.0673    0.9526   26.0761 C   0  0  0  0  0  0  0  0  0  0  0  0
    2.0162    1.5067   27.0460 C   0  0  0  0  0  0  0  0  0  0  0  0
    1.7830    0.4055   28.0702 C   0  0  0  0  0  0  0  0  0  0  0  0
    2.8596   -0.6387   27.7809 C   0  0  0  0  0  0  0  0  0  0  0  0
   10.7479   -2.1691   15.9544 S   0  0  0  0  0  0  0  0  0  0  0  0
   12.6548   -2.3912   13.2578 H   0  0  0  0  0  0  0  0  0  0  0  0
   13.9072   -1.1504   13.0788 H   0  0  0  0  0  0  0  0  0  0  0  0
   13.5178   -1.7671   14.6925 H   0  0  0  0  0  0  0  0  0  0  0  0
    8.7903   -0.1467   13.7394 H   0  0  0  0  0  0  0  0  0  0  0  0
    7.2121   -1.3609   15.2856 H   0  0  0  0  0  0  0  0  0  0  0  0
    7.5144    0.1700   18.2748 H   0  0  0  0  0  0  0  0  0  0  0  0
    9.0354   -0.2178   19.1705 H   0  0  0  0  0  0  0  0  0  0  0  0
    7.6225   -2.2749   20.4465 H   0  0  0  0  0  0  0  0  0  0  0  0
    6.0810   -2.7713   22.4042 H   0  0  0  0  0  0  0  0  0  0  0  0
    5.1223   -2.4086   24.3009 H   0  0  0  0  0  0  0  0  0  0  0  0
    4.4970   -0.7048   23.8914 H   0  0  0  0  0  0  0  0  0  0  0  0
    5.6741   -0.0182   26.4035 H   0  0  0  0  0  0  0  0  0  0  0  0
    6.3854   -1.5278   25.8864 H   0  0  0  0  0  0  0  0  0  0  0  0
    5.5092   -1.4725   27.3967 H   0  0  0  0  0  0  0  0  0  0  0  0
    4.4513   -3.2451   26.3514 H   0  0  0  0  0  0  0  0  0  0  0  0
    2.1343   -1.0063   25.8827 H   0  0  0  0  0  0  0  0  0  0  0  0
    4.0355    1.3523   26.3880 H   0  0  0  0  0  0  0  0  0  0  0  0
    2.8533    1.2756   25.0593 H   0  0  0  0  0  0  0  0  0  0  0  0
    1.0827    1.7538   26.5295 H   0  0  0  0  0  0  0  0  0  0  0  0
    2.3773    2.4260   27.5193 H   0  0  0  0  0  0  0  0  0  0  0  0
    0.7879   -0.0317   27.9256 H   0  0  0  0  0  0  0  0  0  0  0  0
    1.8381    0.7754   29.0984 H   0  0  0  0  0  0  0  0  0  0  0  0
    3.7776   -0.3682   28.3142 H   0  0  0  0  0  0  0  0  0  0  0  0
    2.5458   -1.6297   28.1234 H   0  0  0  0  0  0  0  0  0  0  0  0
  1  2  1  0
  2  3  1  0
  3  4  2  0
  4  5  1  0
  5  6  2  0
  6  7  1  0
  7  8  1  0
  8  9  1  0
  9 10  2  0
  9 11  1  0
 11 12  1  0
 12 13  1  0
 13 14  1  0
 13 15  1  0
 13 16  1  0
 16 17  1  0
 17 18  1  0
 18 19  1  0
 19 20  1  0
  6 21  1  0
 21  3  1  0
 20 16  1  0
  1 22  1  0
  1 23  1  0
  1 24  1  0
  4 25  1  0
  5 26  1  0
  7 27  1  0
  7 28  1  0
  8 29  1  0
 11 30  1  0
 12 31  1  0
 12 32  1  0
 14 33  1  0
 14 34  1  0
 14 35  1  0
 15 36  1  0
 16 37  1  0
 17 38  1  0
 17 39  1  0
 18 40  1  0
 18 41  1  0
 19 42  1  0
 19 43  1  0
 20 44  1  0
 20 45  1  0
M  END
>  <Energy>  (841) 
456.36054873009971

>  <compound_id>  (841) 
63546

>  <target_id>  (841) 
1

>  <reference_id>  (841) 
66

>  <inspiration_ids>  (841) 
[66, 44]

>  <energy_score>  (841) 
459.12662448116964

>  <distance_score>  (841) 
6.090251661402246

>  <path>  (841) 
/opt/xchem-fragalysis-2/maxwin/BulkDock/SCRATCH/511025/C63546-P66/C63546-P66.minimised.mol

>  <scratch_subdir>  (841) 
/opt/xchem-fragalysis-2/maxwin/BulkDock/SCRATCH/511025/C63546-P66

>  <fragmenstein_runtime>  (841) 
13.82215666770935

>  <fragmenstein_outcome>  (841) 
too moved

>  <fragmenstein_mode>  (841) 
expansion

>  <fragmenstein_error>  (841) 


$$$$
C63546-P44
     RDKit          3D

 45 46  0  0  0  0  0  0  0  0999 V2000
    9.9507    0.2845   14.9303 C   0  0  0  0  0  0  0  0  0  0  0  0
    9.1709    0.1789   16.5500 S   0  0  0  0  0  0  0  0  0  0  0  0
    8.9711    1.8354   17.0514 C   0  0  0  0  0  0  0  0  0  0  0  0
    9.2392    2.9518   16.3075 C   0  0  0  0  0  0  0  0  0  0  0  0
    8.7165    4.1323   16.9283 C   0  0  0  0  0  0  0  0  0  0  0  0
    8.0275    3.9433   18.1374 C   0  0  0  0  0  0  0  0  0  0  0  0
    7.2072    5.1664   18.9268 C   0  0  0  0  0  0  0  0  0  0  0  0
    6.1379    4.9613   19.9866 N   0  0  0  0  0  0  0  0  0  0  0  0
    5.0162    5.9879   20.5576 C   0  0  0  0  0  0  0  0  0  0  0  0
    4.7484    7.0677   20.2202 O   0  0  0  0  0  0  0  0  0  0  0  0
    4.3118    5.0346   21.6620 N   0  0  0  0  0  0  0  0  0  0  0  0
    3.0248    5.2541   22.5026 C   0  0  0  0  0  0  0  0  0  0  0  0
    2.8570    4.5156   24.0206 C   0  0  0  0  0  0  0  0  0  0  0  0
    3.4186    5.5321   25.0286 C   0  0  0  0  0  0  0  0  0  0  0  0
    3.7597    3.3913   24.0186 O   0  0  0  0  0  0  0  0  0  0  0  0
    1.4450    3.9297   24.4723 C   0  0  0  0  0  0  0  0  0  0  0  0
    0.2157    4.8379   24.4487 C   0  0  0  0  0  0  0  0  0  0  0  0
   -0.8521    4.0369   25.1922 C   0  0  0  0  0  0  0  0  0  0  0  0
   -0.1057    3.3224   26.3101 C   0  0  0  0  0  0  0  0  0  0  0  0
    1.3785    3.3822   25.9288 C   0  0  0  0  0  0  0  0  0  0  0  0
    8.3477    2.3022   18.6086 S   0  0  0  0  0  0  0  0  0  0  0  0
   10.8762    0.8648   14.9786 H   0  0  0  0  0  0  0  0  0  0  0  0
    9.2737    0.7296   14.1976 H   0  0  0  0  0  0  0  0  0  0  0  0
   10.2095   -0.7261   14.6074 H   0  0  0  0  0  0  0  0  0  0  0  0
    9.7032    2.9580   15.3307 H   0  0  0  0  0  0  0  0  0  0  0  0
    8.7705    5.1092   16.4597 H   0  0  0  0  0  0  0  0  0  0  0  0
    6.7411    5.7789   18.1460 H   0  0  0  0  0  0  0  0  0  0  0  0
    7.9841    5.7760   19.4037 H   0  0  0  0  0  0  0  0  0  0  0  0
    6.1640    4.1273   20.5615 H   0  0  0  0  0  0  0  0  0  0  0  0
    4.7404    4.1311   21.6519 H   0  0  0  0  0  0  0  0  0  0  0  0
    2.8448    6.3316   22.5738 H   0  0  0  0  0  0  0  0  0  0  0  0
    2.2345    4.8301   21.8724 H   0  0  0  0  0  0  0  0  0  0  0  0
    2.7313    6.3684   25.1836 H   0  0  0  0  0  0  0  0  0  0  0  0
    3.6488    5.0685   25.9925 H   0  0  0  0  0  0  0  0  0  0  0  0
    4.3720    5.9406   24.6718 H   0  0  0  0  0  0  0  0  0  0  0  0
    4.6473    3.7439   23.8440 H   0  0  0  0  0  0  0  0  0  0  0  0
    1.2414    3.0855   23.8072 H   0  0  0  0  0  0  0  0  0  0  0  0
    0.4140    5.7783   24.9752 H   0  0  0  0  0  0  0  0  0  0  0  0
   -0.0973    5.0792   23.4284 H   0  0  0  0  0  0  0  0  0  0  0  0
   -1.2999    3.2989   24.5156 H   0  0  0  0  0  0  0  0  0  0  0  0
   -1.6571    4.6737   25.5706 H   0  0  0  0  0  0  0  0  0  0  0  0
   -0.4519    2.2886   26.4112 H   0  0  0  0  0  0  0  0  0  0  0  0
   -0.2698    3.8196   27.2725 H   0  0  0  0  0  0  0  0  0  0  0  0
    1.8791    4.0539   26.6324 H   0  0  0  0  0  0  0  0  0  0  0  0
    1.8626    2.4053   26.0160 H   0  0  0  0  0  0  0  0  0  0  0  0
  1  2  1  0
  2  3  1  0
  3  4  2  0
  4  5  1  0
  5  6  2  0
  6  7  1  0
  7  8  1  0
  8  9  1  0
  9 10  2  0
  9 11  1  0
 11 12  1  0
 12 13  1  0
 13 14  1  0
 13 15  1  0
 13 16  1  0
 16 17  1  0
 17 18  1  0
 18 19  1  0
 19 20  1  0
  6 21  1  0
 21  3  1  0
 20 16  1  0
  1 22  1  0
  1 23  1  0
  1 24  1  0
  4 25  1  0
  5 26  1  0
  7 27  1  0
  7 28  1  0
  8 29  1  0
 11 30  1  0
 12 31  1  0
 12 32  1  0
 14 33  1  0
 14 34  1  0
 14 35  1  0
 15 36  1  0
 16 37  1  0
 17 38  1  0
 17 39  1  0
 18 40  1  0
 18 41  1  0
 19 42  1  0
 19 43  1  0
 20 44  1  0
 20 45  1  0
M  END
>  <Energy>  (842) 
25.645674046117197

>  <compound_id>  (842) 
63546

>  <target_id>  (842) 
1

>  <reference_id>  (842) 
44

>  <inspiration_ids>  (842) 
[66, 44]

>  <energy_score>  (842) 
33.5043273907425

>  <distance_score>  (842) 
7.531212441134042

>  <path>  (842) 
/opt/xchem-fragalysis-2/maxwin/BulkDock/SCRATCH/511025/C63546-P44/C63546-P44.minimised.mol

>  <scratch_subdir>  (842) 
/opt/xchem-fragalysis-2/maxwin/BulkDock/SCRATCH/511025/C63546-P44

>  <fragmenstein_runtime>  (842) 
17.151978969573975

>  <fragmenstein_outcome>  (842) 
too moved

>  <fragmenstein_mode>  (842) 
expansion

>  <fragmenstein_error>  (842) 


$$$$
C63547-P66
     RDKit          3D

 47 48  0  0  0  0  0  0  0  0999 V2000
   10.8315    4.0938   22.1183 C   0  0  0  0  0  0  0  0  0  0  0  0
   10.1617    2.7312   22.1982 C   0  0  0  0  0  0  0  0  0  0  0  0
   10.8706    1.7972   23.1445 C   0  0  0  0  0  0  0  0  0  0  0  0
   11.9967    1.0138   22.7246 C   0  0  0  0  0  0  0  0  0  0  0  0
   12.4780    0.1935   23.7137 C   0  0  0  0  0  0  0  0  0  0  0  0
   11.6059    0.3663   25.1622 S   0  0  0  0  0  0  0  0  0  0  0  0
   10.6064    1.6055   24.5066 C   0  0  0  0  0  0  0  0  0  0  0  0
    9.7156    2.3856   25.4511 C   0  0  0  0  0  0  0  0  0  0  0  0
    8.6020    1.6572   26.0338 N   0  0  0  0  0  0  0  0  0  0  0  0
    7.3082    2.1507   26.6174 C   0  0  0  0  0  0  0  0  0  0  0  0
    6.9362    3.2452   26.8061 O   0  0  0  0  0  0  0  0  0  0  0  0
    6.5978    0.8552   26.7935 N   0  0  0  0  0  0  0  0  0  0  0  0
    5.2049    0.5673   27.1560 C   0  0  0  0  0  0  0  0  0  0  0  0
    4.6212    1.1555   28.4819 C   0  0  0  0  0  0  0  0  0  0  0  0
    5.0291    0.2291   29.6368 C   0  0  0  0  0  0  0  0  0  0  0  0
    5.1743    2.4393   28.8074 O   0  0  0  0  0  0  0  0  0  0  0  0
    3.0728    1.3472   28.4771 C   0  0  0  0  0  0  0  0  0  0  0  0
    2.2162    0.1527   28.0557 C   0  0  0  0  0  0  0  0  0  0  0  0
    0.8239    0.7636   27.9228 C   0  0  0  0  0  0  0  0  0  0  0  0
    1.0531    2.1673   27.3680 C   0  0  0  0  0  0  0  0  0  0  0  0
    2.5416    2.4691   27.5679 C   0  0  0  0  0  0  0  0  0  0  0  0
   10.2848    4.7451   21.4290 H   0  0  0  0  0  0  0  0  0  0  0  0
   10.8571    4.5807   23.0989 H   0  0  0  0  0  0  0  0  0  0  0  0
   11.8626    4.0082   21.7591 H   0  0  0  0  0  0  0  0  0  0  0  0
   10.1242    2.2833   21.1985 H   0  0  0  0  0  0  0  0  0  0  0  0
    9.1209    2.8574   22.5180 H   0  0  0  0  0  0  0  0  0  0  0  0
   12.4354    1.0436   21.7375 H   0  0  0  0  0  0  0  0  0  0  0  0
   13.2929   -0.5147   23.6461 H   0  0  0  0  0  0  0  0  0  0  0  0
   10.3087    2.7753   26.2869 H   0  0  0  0  0  0  0  0  0  0  0  0
    9.2941    3.2599   24.9434 H   0  0  0  0  0  0  0  0  0  0  0  0
    8.5640    0.6602   25.9375 H   0  0  0  0  0  0  0  0  0  0  0  0
    7.2361    0.1008   26.6196 H   0  0  0  0  0  0  0  0  0  0  0  0
    4.6223    0.9541   26.3206 H   0  0  0  0  0  0  0  0  0  0  0  0
    5.0857   -0.5220   27.1293 H   0  0  0  0  0  0  0  0  0  0  0  0
    6.1208    0.1613   29.7116 H   0  0  0  0  0  0  0  0  0  0  0  0
    4.6806    0.6228   30.5987 H   0  0  0  0  0  0  0  0  0  0  0  0
    4.6291   -0.7820   29.5117 H   0  0  0  0  0  0  0  0  0  0  0  0
    5.5466    2.8416   27.9971 H   0  0  0  0  0  0  0  0  0  0  0  0
    2.7792    1.6289   29.5008 H   0  0  0  0  0  0  0  0  0  0  0  0
    2.2320   -0.6561   28.7920 H   0  0  0  0  0  0  0  0  0  0  0  0
    2.5398   -0.2526   27.0907 H   0  0  0  0  0  0  0  0  0  0  0  0
    0.1651    0.1651   27.2881 H   0  0  0  0  0  0  0  0  0  0  0  0
    0.3541    0.8323   28.9116 H   0  0  0  0  0  0  0  0  0  0  0  0
    0.7965    2.2185   26.3044 H   0  0  0  0  0  0  0  0  0  0  0  0
    0.4246    2.8959   27.8912 H   0  0  0  0  0  0  0  0  0  0  0  0
    3.0432    2.4716   26.5952 H   0  0  0  0  0  0  0  0  0  0  0  0
    2.6912    3.4578   28.0143 H   0  0  0  0  0  0  0  0  0  0  0  0
  1  2  1  0
  2  3  1  0
  3  4  1  0
  4  5  2  0
  5  6  1  0
  6  7  1  0
  7  8  1  0
  8  9  1  0
  9 10  1  0
 10 11  2  0
 10 12  1  0
 12 13  1  0
 13 14  1  0
 14 15  1  0
 14 16  1  0
 14 17  1  0
 17 18  1  0
 18 19  1  0
 19 20  1  0
 20 21  1  0
  7  3  2  0
 21 17  1  0
  1 22  1  0
  1 23  1  0
  1 24  1  0
  2 25  1  0
  2 26  1  0
  4 27  1  0
  5 28  1  0
  8 29  1  0
  8 30  1  0
  9 31  1  0
 12 32  1  0
 13 33  1  0
 13 34  1  0
 15 35  1  0
 15 36  1  0
 15 37  1  0
 16 38  1  0
 17 39  1  0
 18 40  1  0
 18 41  1  0
 19 42  1  0
 19 43  1  0
 20 44  1  0
 20 45  1  0
 21 46  1  0
 21 47  1  0
M  END
>  <Energy>  (843) 
-30.704130962080953

>  <compound_id>  (843) 
63547

>  <target_id>  (843) 
1

>  <reference_id>  (843) 
66

>  <inspiration_ids>  (843) 
[66, 44]

>  <energy_score>  (843) 
-16.31230360357506

>  <distance_score>  (843) 
7.447897458562169

>  <path>  (843) 
/opt/xchem-fragalysis-2/maxwin/BulkDock/SCRATCH/511025/C63547-P66/C63547-P66.minimised.mol

>  <scratch_subdir>  (843) 
/opt/xchem-fragalysis-2/maxwin/BulkDock/SCRATCH/511025/C63547-P66

>  <fragmenstein_runtime>  (843) 
22.749083757400513

>  <fragmenstein_outcome>  (843) 
too moved

>  <fragmenstein_mode>  (843) 
expansion

>  <fragmenstein_error>  (843) 


$$$$
C63547-P44
     RDKit          3D

 47 48  0  0  0  0  0  0  0  0999 V2000
    7.8551    4.5553   18.3609 C   0  0  0  0  0  0  0  0  0  0  0  0
    8.4109    3.2491   18.9172 C   0  0  0  0  0  0  0  0  0  0  0  0
    8.6933    2.2238   17.8871 C   0  0  0  0  0  0  0  0  0  0  0  0
    9.4373    2.5549   16.6906 C   0  0  0  0  0  0  0  0  0  0  0  0
    9.6157    1.5086   15.8321 C   0  0  0  0  0  0  0  0  0  0  0  0
    8.8883    0.1169   16.4254 S   0  0  0  0  0  0  0  0  0  0  0  0
    8.2835    0.8977   17.9143 C   0  0  0  0  0  0  0  0  0  0  0  0
    7.4127   -0.0524   18.7824 C   0  0  0  0  0  0  0  0  0  0  0  0
    6.6508    0.0186   20.0071 N   0  0  0  0  0  0  0  0  0  0  0  0
    5.7712   -1.3273   20.9774 C   0  0  0  0  0  0  0  0  0  0  0  0
    5.7750   -2.4860   20.6916 O   0  0  0  0  0  0  0  0  0  0  0  0
    4.9944   -0.7324   22.5622 N   0  0  0  0  0  0  0  0  0  0  0  0
    4.3950   -1.4969   23.7355 C   0  0  0  0  0  0  0  0  0  0  0  0
    4.5211   -0.9234   25.3561 C   0  0  0  0  0  0  0  0  0  0  0  0
    5.9980   -0.8795   25.8566 C   0  0  0  0  0  0  0  0  0  0  0  0
    4.0336   -2.0359   26.1788 O   0  0  0  0  0  0  0  0  0  0  0  0
    3.8874    0.3959   25.9822 C   0  0  0  0  0  0  0  0  0  0  0  0
    2.6831    0.2675   26.9289 C   0  0  0  0  0  0  0  0  0  0  0  0
    2.3171    1.7111   27.2551 C   0  0  0  0  0  0  0  0  0  0  0  0
    2.6614    2.5187   26.0095 C   0  0  0  0  0  0  0  0  0  0  0  0
    3.6725    1.6908   25.2003 C   0  0  0  0  0  0  0  0  0  0  0  0
    7.5486    5.2200   19.1741 H   0  0  0  0  0  0  0  0  0  0  0  0
    8.6039    5.0899   17.7678 H   0  0  0  0  0  0  0  0  0  0  0  0
    6.9845    4.3770   17.7208 H   0  0  0  0  0  0  0  0  0  0  0  0
    7.6723    2.8305   19.5937 H   0  0  0  0  0  0  0  0  0  0  0  0
    9.3169    3.4511   19.4992 H   0  0  0  0  0  0  0  0  0  0  0  0
    9.8430    3.5392   16.4889 H   0  0  0  0  0  0  0  0  0  0  0  0
   10.1319    1.5045   14.8820 H   0  0  0  0  0  0  0  0  0  0  0  0
    6.6870   -0.4323   18.0729 H   0  0  0  0  0  0  0  0  0  0  0  0
    8.1742   -0.6917   19.1561 H   0  0  0  0  0  0  0  0  0  0  0  0
    6.5716    0.8653   20.4726 H   0  0  0  0  0  0  0  0  0  0  0  0
    5.0096    0.2702   22.5824 H   0  0  0  0  0  0  0  0  0  0  0  0
    5.1160   -2.3053   23.8370 H   0  0  0  0  0  0  0  0  0  0  0  0
    3.4722   -1.9862   23.4591 H   0  0  0  0  0  0  0  0  0  0  0  0
    6.0377   -0.8609   26.9556 H   0  0  0  0  0  0  0  0  0  0  0  0
    6.5442   -1.7897   25.6007 H   0  0  0  0  0  0  0  0  0  0  0  0
    6.5278    0.0088   25.5081 H   0  0  0  0  0  0  0  0  0  0  0  0
    4.6181   -2.7993   26.0135 H   0  0  0  0  0  0  0  0  0  0  0  0
    4.6503    0.7287   26.7082 H   0  0  0  0  0  0  0  0  0  0  0  0
    2.9427   -0.2759   27.8445 H   0  0  0  0  0  0  0  0  0  0  0  0
    1.8376   -0.2458   26.4895 H   0  0  0  0  0  0  0  0  0  0  0  0
    1.2663    1.8170   27.5410 H   0  0  0  0  0  0  0  0  0  0  0  0
    2.9256    2.0627   28.0971 H   0  0  0  0  0  0  0  0  0  0  0  0
    1.7617    2.7045   25.4125 H   0  0  0  0  0  0  0  0  0  0  0  0
    3.0717    3.4985   26.2763 H   0  0  0  0  0  0  0  0  0  0  0  0
    3.2823    1.5590   24.2005 H   0  0  0  0  0  0  0  0  0  0  0  0
    4.6159    2.2384   25.0960 H   0  0  0  0  0  0  0  0  0  0  0  0
  1  2  1  0
  2  3  1  0
  3  4  1  0
  4  5  2  0
  5  6  1  0
  6  7  1  0
  7  8  1  0
  8  9  1  0
  9 10  1  0
 10 11  2  0
 10 12  1  0
 12 13  1  0
 13 14  1  0
 14 15  1  0
 14 16  1  0
 14 17  1  0
 17 18  1  0
 18 19  1  0
 19 20  1  0
 20 21  1  0
  7  3  2  0
 21 17  1  0
  1 22  1  0
  1 23  1  0
  1 24  1  0
  2 25  1  0
  2 26  1  0
  4 27  1  0
  5 28  1  0
  8 29  1  0
  8 30  1  0
  9 31  1  0
 12 32  1  0
 13 33  1  0
 13 34  1  0
 15 35  1  0
 15 36  1  0
 15 37  1  0
 16 38  1  0
 17 39  1  0
 18 40  1  0
 18 41  1  0
 19 42  1  0
 19 43  1  0
 20 44  1  0
 20 45  1  0
 21 46  1  0
 21 47  1  0
M  END
>  <Energy>  (844) 
165.99973922434009

>  <compound_id>  (844) 
63547

>  <target_id>  (844) 
1

>  <reference_id>  (844) 
44

>  <inspiration_ids>  (844) 
[66, 44]

>  <energy_score>  (844) 
180.39156658284384

>  <distance_score>  (844) 
6.6901053263815005

>  <path>  (844) 
/opt/xchem-fragalysis-2/maxwin/BulkDock/SCRATCH/511025/C63547-P44/C63547-P44.minimised.mol

>  <scratch_subdir>  (844) 
/opt/xchem-fragalysis-2/maxwin/BulkDock/SCRATCH/511025/C63547-P44

>  <fragmenstein_runtime>  (844) 
11.148355484008789

>  <fragmenstein_outcome>  (844) 
too moved

>  <fragmenstein_mode>  (844) 
expansion

>  <fragmenstein_error>  (844) 


$$$$
C63548-P66
     RDKit          3D

 47 48  0  0  0  0  0  0  0  0999 V2000
   13.1470    1.5308   22.8084 C   0  0  0  0  0  0  0  0  0  0  0  0
   12.2653    2.1510   21.7793 C   0  0  0  0  0  0  0  0  0  0  0  0
   12.6226    2.7878   20.6093 C   0  0  0  0  0  0  0  0  0  0  0  0
   11.4845    3.2312   19.8785 C   0  0  0  0  0  0  0  0  0  0  0  0
   10.2879    2.9091   20.5010 C   0  0  0  0  0  0  0  0  0  0  0  0
    8.9236    3.2642   20.0058 C   0  0  0  0  0  0  0  0  0  0  0  0
    7.8017    2.4985   20.4939 N   0  0  0  0  0  0  0  0  0  0  0  0
    6.5709    2.9238   21.1255 C   0  0  0  0  0  0  0  0  0  0  0  0
    6.1662    4.0141   21.3710 O   0  0  0  0  0  0  0  0  0  0  0  0
    5.6760    1.3187   21.6694 N   0  0  0  0  0  0  0  0  0  0  0  0
    4.1091    1.0773   22.5814 C   0  0  0  0  0  0  0  0  0  0  0  0
    3.8542    0.5312   24.5654 C   0  0  0  0  0  0  0  0  0  0  0  0
    3.7579   -1.0214   24.9009 C   0  0  0  0  0  0  0  0  0  0  0  0
    4.9861    0.8171   25.5916 O   0  0  0  0  0  0  0  0  0  0  0  0
    2.7524    1.5171   25.5073 C   0  0  0  0  0  0  0  0  0  0  0  0
    2.1607    0.8573   26.7992 C   0  0  0  0  0  0  0  0  0  0  0  0
    0.8950    1.5631   27.3060 C   0  0  0  0  0  0  0  0  0  0  0  0
    1.0340    3.0795   27.2654 C   0  0  0  0  0  0  0  0  0  0  0  0
    1.3670    3.6257   25.8754 C   0  0  0  0  0  0  0  0  0  0  0  0
    1.8112    2.5553   24.8626 C   0  0  0  0  0  0  0  0  0  0  0  0
   10.5680    2.1549   22.0088 S   0  0  0  0  0  0  0  0  0  0  0  0
   12.7994    0.5273   23.0741 H   0  0  0  0  0  0  0  0  0  0  0  0
   14.1733    1.4398   22.4377 H   0  0  0  0  0  0  0  0  0  0  0  0
   13.1682    2.1442   23.7151 H   0  0  0  0  0  0  0  0  0  0  0  0
   13.6490    2.9248   20.2915 H   0  0  0  0  0  0  0  0  0  0  0  0
   11.5323    3.7559   18.9317 H   0  0  0  0  0  0  0  0  0  0  0  0
    8.7394    4.2909   20.3545 H   0  0  0  0  0  0  0  0  0  0  0  0
    8.8507    3.3559   18.9206 H   0  0  0  0  0  0  0  0  0  0  0  0
    7.7802    1.5023   20.3707 H   0  0  0  0  0  0  0  0  0  0  0  0
    6.1583    0.5031   21.2754 H   0  0  0  0  0  0  0  0  0  0  0  0
    3.2327    1.7829   22.3941 H   0  0  0  0  0  0  0  0  0  0  0  0
    4.0341    0.3452   21.7622 H   0  0  0  0  0  0  0  0  0  0  0  0
    3.9035   -1.2539   25.9616 H   0  0  0  0  0  0  0  0  0  0  0  0
    2.8134   -1.4668   24.6385 H   0  0  0  0  0  0  0  0  0  0  0  0
    4.5431   -1.5678   24.3681 H   0  0  0  0  0  0  0  0  0  0  0  0
    4.7859    0.3364   26.4105 H   0  0  0  0  0  0  0  0  0  0  0  0
    3.4268    2.2227   26.0235 H   0  0  0  0  0  0  0  0  0  0  0  0
    1.9504   -0.2090   26.6818 H   0  0  0  0  0  0  0  0  0  0  0  0
    2.9206    0.9045   27.5916 H   0  0  0  0  0  0  0  0  0  0  0  0
    0.0290    1.2620   26.7066 H   0  0  0  0  0  0  0  0  0  0  0  0
    0.6877    1.2382   28.3322 H   0  0  0  0  0  0  0  0  0  0  0  0
    0.1136    3.5480   27.6334 H   0  0  0  0  0  0  0  0  0  0  0  0
    1.8271    3.3795   27.9622 H   0  0  0  0  0  0  0  0  0  0  0  0
    2.1544    4.3837   25.9730 H   0  0  0  0  0  0  0  0  0  0  0  0
    0.4942    4.1522   25.4694 H   0  0  0  0  0  0  0  0  0  0  0  0
    0.8884    2.1171   24.5052 H   0  0  0  0  0  0  0  0  0  0  0  0
    2.2768    3.0568   24.0111 H   0  0  0  0  0  0  0  0  0  0  0  0
  1  2  1  0
  2  3  2  0
  3  4  1  0
  4  5  2  0
  5  6  1  0
  6  7  1  0
  7  8  1  0
  8  9  2  0
  8 10  1  0
 10 11  1  0
 11 12  1  0
 12 13  1  0
 12 14  1  0
 12 15  1  0
 15 16  1  0
 16 17  1  0
 17 18  1  0
 18 19  1  0
 19 20  1  0
  5 21  1  0
 21  2  1  0
 20 15  1  0
  1 22  1  0
  1 23  1  0
  1 24  1  0
  3 25  1  0
  4 26  1  0
  6 27  1  0
  6 28  1  0
  7 29  1  0
 10 30  1  0
 11 31  1  0
 11 32  1  0
 13 33  1  0
 13 34  1  0
 13 35  1  0
 14 36  1  0
 15 37  1  0
 16 38  1  0
 16 39  1  0
 17 40  1  0
 17 41  1  0
 18 42  1  0
 18 43  1  0
 19 44  1  0
 19 45  1  0
 20 46  1  0
 20 47  1  0
M  END
>  <Energy>  (845) 
212.45705382316598

>  <compound_id>  (845) 
63548

>  <target_id>  (845) 
1

>  <reference_id>  (845) 
66

>  <inspiration_ids>  (845) 
[66, 44]

>  <energy_score>  (845) 
211.68811351162066

>  <distance_score>  (845) 
6.44892580241789

>  <path>  (845) 
/opt/xchem-fragalysis-2/maxwin/BulkDock/SCRATCH/511025/C63548-P66/C63548-P66.minimised.mol

>  <scratch_subdir>  (845) 
/opt/xchem-fragalysis-2/maxwin/BulkDock/SCRATCH/511025/C63548-P66

>  <fragmenstein_runtime>  (845) 
33.24638652801514

>  <fragmenstein_outcome>  (845) 
too moved

>  <fragmenstein_mode>  (845) 
expansion

>  <fragmenstein_error>  (845) 


$$$$
C63548-P44
     RDKit          3D

 47 48  0  0  0  0  0  0  0  0999 V2000
   12.9467   -0.8512   24.7510 C   0  0  0  0  0  0  0  0  0  0  0  0
   11.5458   -0.6356   25.2124 C   0  0  0  0  0  0  0  0  0  0  0  0
   10.7798    0.5078   25.1278 C   0  0  0  0  0  0  0  0  0  0  0  0
    9.5208    0.3629   25.7876 C   0  0  0  0  0  0  0  0  0  0  0  0
    9.3267   -0.9044   26.3040 C   0  0  0  0  0  0  0  0  0  0  0  0
    8.2111   -1.4870   27.1333 C   0  0  0  0  0  0  0  0  0  0  0  0
    6.9822   -0.7205   27.1435 N   0  0  0  0  0  0  0  0  0  0  0  0
    6.4791    0.2968   28.1084 C   0  0  0  0  0  0  0  0  0  0  0  0
    6.9992    0.7705   29.0446 O   0  0  0  0  0  0  0  0  0  0  0  0
    5.0973    0.4857   27.5795 N   0  0  0  0  0  0  0  0  0  0  0  0
    4.0270    1.3800   28.0089 C   0  0  0  0  0  0  0  0  0  0  0  0
    2.5980    0.7390   28.0146 C   0  0  0  0  0  0  0  0  0  0  0  0
    2.4631   -0.2063   29.2215 C   0  0  0  0  0  0  0  0  0  0  0  0
    2.5037   -0.0627   26.8295 O   0  0  0  0  0  0  0  0  0  0  0  0
    1.4332    1.8094   28.0089 C   0  0  0  0  0  0  0  0  0  0  0  0
    0.0289    1.1576   27.8950 C   0  0  0  0  0  0  0  0  0  0  0  0
   -1.1058    2.1734   27.7918 C   0  0  0  0  0  0  0  0  0  0  0  0
   -0.8997    3.1376   26.6377 C   0  0  0  0  0  0  0  0  0  0  0  0
    0.4297    3.8551   26.7968 C   0  0  0  0  0  0  0  0  0  0  0  0
    1.5998    2.8772   26.9011 C   0  0  0  0  0  0  0  0  0  0  0  0
   10.6936   -1.9078   25.9681 S   0  0  0  0  0  0  0  0  0  0  0  0
   13.0588   -1.8117   24.2374 H   0  0  0  0  0  0  0  0  0  0  0  0
   13.2564   -0.0615   24.0584 H   0  0  0  0  0  0  0  0  0  0  0  0
   13.6322   -0.8357   25.6049 H   0  0  0  0  0  0  0  0  0  0  0  0
   11.1276    1.4244   24.6685 H   0  0  0  0  0  0  0  0  0  0  0  0
    8.8026    1.1641   25.9113 H   0  0  0  0  0  0  0  0  0  0  0  0
    7.9494   -2.4888   26.7779 H   0  0  0  0  0  0  0  0  0  0  0  0
    8.5495   -1.5661   28.1728 H   0  0  0  0  0  0  0  0  0  0  0  0
    6.3111   -0.8424   26.4110 H   0  0  0  0  0  0  0  0  0  0  0  0
    5.0039   -0.0074   26.7110 H   0  0  0  0  0  0  0  0  0  0  0  0
    4.0863    2.1895   27.2788 H   0  0  0  0  0  0  0  0  0  0  0  0
    4.2810    1.7982   28.9885 H   0  0  0  0  0  0  0  0  0  0  0  0
    1.5521   -0.8107   29.1703 H   0  0  0  0  0  0  0  0  0  0  0  0
    3.2902   -0.9255   29.2435 H   0  0  0  0  0  0  0  0  0  0  0  0
    2.4671    0.3487   30.1649 H   0  0  0  0  0  0  0  0  0  0  0  0
    1.7230   -0.6376   26.9168 H   0  0  0  0  0  0  0  0  0  0  0  0
    1.4721    2.3412   28.9703 H   0  0  0  0  0  0  0  0  0  0  0  0
   -0.0205    0.5088   27.0153 H   0  0  0  0  0  0  0  0  0  0  0  0
   -0.1631    0.5254   28.7684 H   0  0  0  0  0  0  0  0  0  0  0  0
   -2.0627    1.6521   27.6777 H   0  0  0  0  0  0  0  0  0  0  0  0
   -1.1534    2.7477   28.7204 H   0  0  0  0  0  0  0  0  0  0  0  0
   -0.9240    2.5966   25.6850 H   0  0  0  0  0  0  0  0  0  0  0  0
   -1.7154    3.8689   26.6149 H   0  0  0  0  0  0  0  0  0  0  0  0
    0.4025    4.4845   27.6951 H   0  0  0  0  0  0  0  0  0  0  0  0
    0.5896    4.5262   25.9451 H   0  0  0  0  0  0  0  0  0  0  0  0
    1.7446    2.3918   25.9308 H   0  0  0  0  0  0  0  0  0  0  0  0
    2.4945    3.4790   27.0907 H   0  0  0  0  0  0  0  0  0  0  0  0
  1  2  1  0
  2  3  2  0
  3  4  1  0
  4  5  2  0
  5  6  1  0
  6  7  1  0
  7  8  1  0
  8  9  2  0
  8 10  1  0
 10 11  1  0
 11 12  1  0
 12 13  1  0
 12 14  1  0
 12 15  1  0
 15 16  1  0
 16 17  1  0
 17 18  1  0
 18 19  1  0
 19 20  1  0
  5 21  1  0
 21  2  1  0
 20 15  1  0
  1 22  1  0
  1 23  1  0
  1 24  1  0
  3 25  1  0
  4 26  1  0
  6 27  1  0
  6 28  1  0
  7 29  1  0
 10 30  1  0
 11 31  1  0
 11 32  1  0
 13 33  1  0
 13 34  1  0
 13 35  1  0
 14 36  1  0
 15 37  1  0
 16 38  1  0
 16 39  1  0
 17 40  1  0
 17 41  1  0
 18 42  1  0
 18 43  1  0
 19 44  1  0
 19 45  1  0
 20 46  1  0
 20 47  1  0
M  END
>  <Energy>  (846) 
-35.439899437484776

>  <compound_id>  (846) 
63548

>  <target_id>  (846) 
1

>  <reference_id>  (846) 
44

>  <inspiration_ids>  (846) 
[66, 44]

>  <energy_score>  (846) 
-36.20883974903211

>  <distance_score>  (846) 
7.852366478569227

>  <path>  (846) 
/opt/xchem-fragalysis-2/maxwin/BulkDock/SCRATCH/511025/C63548-P44/C63548-P44.minimised.mol

>  <scratch_subdir>  (846) 
/opt/xchem-fragalysis-2/maxwin/BulkDock/SCRATCH/511025/C63548-P44

>  <fragmenstein_runtime>  (846) 
31.398574352264404

>  <fragmenstein_outcome>  (846) 
too moved

>  <fragmenstein_mode>  (846) 
expansion

>  <fragmenstein_error>  (846) 


$$$$
C63549-P66
     RDKit          3D

 42 43  0  0  0  0  0  0  0  0999 V2000
    2.8574    3.6548   22.3636 C   0  0  0  0  0  0  0  0  0  0  0  0
    3.2413    1.8758   22.4967 C   0  0  0  0  0  0  0  0  0  0  0  0
    2.2049    1.6844   21.4850 O   0  0  0  0  0  0  0  0  0  0  0  0
    5.0532    1.0355   21.7249 C   0  0  0  0  0  0  0  0  0  0  0  0
    6.4572    2.4257   21.0835 N   0  0  0  0  0  0  0  0  0  0  0  0
    7.9426    2.2467   20.6388 C   0  0  0  0  0  0  0  0  0  0  0  0
    8.6015    1.2742   20.5720 O   0  0  0  0  0  0  0  0  0  0  0  0
    8.3070    3.6688   20.4212 N   0  0  0  0  0  0  0  0  0  0  0  0
    9.5891    4.2862   20.1603 C   0  0  0  0  0  0  0  0  0  0  0  0
   10.2128    4.1018   18.8049 C   0  0  0  0  0  0  0  0  0  0  0  0
   11.9414    3.9703   18.7411 S   0  0  0  0  0  0  0  0  0  0  0  0
   11.9556    3.8593   17.0374 C   0  0  0  0  0  0  0  0  0  0  0  0
   10.6884    3.9255   16.5115 C   0  0  0  0  0  0  0  0  0  0  0  0
    9.6914    4.0849   17.5231 C   0  0  0  0  0  0  0  0  0  0  0  0
    8.0436    4.1994   17.0892 Cl  0  0  0  0  0  0  0  0  0  0  0  0
    2.5510    1.9282   24.2818 C   0  0  0  0  0  0  0  0  0  0  0  0
    1.1545    2.6519   24.6104 C   0  0  0  0  0  0  0  0  0  0  0  0
    0.6220    2.4716   26.0062 C   0  0  0  0  0  0  0  0  0  0  0  0
    1.2683    1.8376   26.9895 C   0  0  0  0  0  0  0  0  0  0  0  0
    2.6149    1.2116   26.8367 C   0  0  0  0  0  0  0  0  0  0  0  0
    3.0630    0.8733   25.4035 C   0  0  0  0  0  0  0  0  0  0  0  0
    3.0336    4.1225   21.3851 H   0  0  0  0  0  0  0  0  0  0  0  0
    3.2934    4.2960   23.1340 H   0  0  0  0  0  0  0  0  0  0  0  0
    1.7661    3.7463   22.4430 H   0  0  0  0  0  0  0  0  0  0  0  0
    2.5517    2.1572   20.7112 H   0  0  0  0  0  0  0  0  0  0  0  0
    4.2748    0.7068   21.1327 H   0  0  0  0  0  0  0  0  0  0  0  0
    5.4898    0.1040   21.2741 H   0  0  0  0  0  0  0  0  0  0  0  0
    6.2237    3.4162   21.1026 H   0  0  0  0  0  0  0  0  0  0  0  0
    7.4840    4.2326   20.4782 H   0  0  0  0  0  0  0  0  0  0  0  0
   10.2593    3.8964   20.9359 H   0  0  0  0  0  0  0  0  0  0  0  0
    9.4619    5.3589   20.3454 H   0  0  0  0  0  0  0  0  0  0  0  0
   12.8904    3.7475   16.5054 H   0  0  0  0  0  0  0  0  0  0  0  0
   10.4808    3.8684   15.4505 H   0  0  0  0  0  0  0  0  0  0  0  0
    3.0490    2.8235   24.6868 H   0  0  0  0  0  0  0  0  0  0  0  0
    0.3370    2.4531   23.9228 H   0  0  0  0  0  0  0  0  0  0  0  0
    1.2958    3.7394   24.5157 H   0  0  0  0  0  0  0  0  0  0  0  0
   -0.3444    2.9255   26.2193 H   0  0  0  0  0  0  0  0  0  0  0  0
    0.8154    1.7908   27.9772 H   0  0  0  0  0  0  0  0  0  0  0  0
    3.3507    1.8877   27.2900 H   0  0  0  0  0  0  0  0  0  0  0  0
    2.6410    0.2882   27.4283 H   0  0  0  0  0  0  0  0  0  0  0  0
    4.1490    0.7674   25.4622 H   0  0  0  0  0  0  0  0  0  0  0  0
    2.8288   -0.1713   25.1865 H   0  0  0  0  0  0  0  0  0  0  0  0
  1  2  1  0
  2  3  1  0
  2  4  1  0
  4  5  1  0
  5  6  1  0
  6  7  2  0
  6  8  1  0
  8  9  1  0
  9 10  1  0
 10 11  1  0
 11 12  1  0
 12 13  2  0
 13 14  1  0
 14 15  1  0
  2 16  1  0
 16 17  1  0
 17 18  1  0
 18 19  2  0
 19 20  1  0
 20 21  1  0
 14 10  2  0
 21 16  1  0
  1 22  1  0
  1 23  1  0
  1 24  1  0
  3 25  1  0
  4 26  1  0
  4 27  1  0
  5 28  1  0
  8 29  1  0
  9 30  1  0
  9 31  1  0
 12 32  1  0
 13 33  1  0
 16 34  1  0
 17 35  1  0
 17 36  1  0
 18 37  1  0
 19 38  1  0
 20 39  1  0
 20 40  1  0
 21 41  1  0
 21 42  1  0
M  END
>  <Energy>  (847) 
323.51420986651311

>  <compound_id>  (847) 
63549

>  <target_id>  (847) 
1

>  <reference_id>  (847) 
66

>  <inspiration_ids>  (847) 
[66, 44]

>  <energy_score>  (847) 
326.91984081001954

>  <distance_score>  (847) 
6.21061081838547

>  <path>  (847) 
/opt/xchem-fragalysis-2/maxwin/BulkDock/SCRATCH/511025/C63549-P66/C63549-P66.minimised.mol

>  <scratch_subdir>  (847) 
/opt/xchem-fragalysis-2/maxwin/BulkDock/SCRATCH/511025/C63549-P66

>  <fragmenstein_runtime>  (847) 
9.660489320755005

>  <fragmenstein_outcome>  (847) 
too moved

>  <fragmenstein_mode>  (847) 
expansion

>  <fragmenstein_error>  (847) 


$$$$
C63549-P44
     RDKit          3D

 42 43  0  0  0  0  0  0  0  0999 V2000
    4.1860    4.8776   23.6709 C   0  0  0  0  0  0  0  0  0  0  0  0
    2.8664    5.4173   23.0978 C   0  0  0  0  0  0  0  0  0  0  0  0
    2.7106    6.7298   23.6664 O   0  0  0  0  0  0  0  0  0  0  0  0
    2.9371    5.5701   21.5237 C   0  0  0  0  0  0  0  0  0  0  0  0
    4.2597    5.4408   20.8996 N   0  0  0  0  0  0  0  0  0  0  0  0
    5.0634    6.4186   20.1012 C   0  0  0  0  0  0  0  0  0  0  0  0
    4.8535    7.5458   19.8554 O   0  0  0  0  0  0  0  0  0  0  0  0
    6.2151    5.5385   19.6996 N   0  0  0  0  0  0  0  0  0  0  0  0
    7.4406    5.8499   18.9788 C   0  0  0  0  0  0  0  0  0  0  0  0
    7.7972    4.9526   17.8066 C   0  0  0  0  0  0  0  0  0  0  0  0
    7.7785    5.6470   16.2236 S   0  0  0  0  0  0  0  0  0  0  0  0
    8.5032    4.2819   15.5060 C   0  0  0  0  0  0  0  0  0  0  0  0
    8.6885    3.2709   16.4110 C   0  0  0  0  0  0  0  0  0  0  0  0
    8.3039    3.6641   17.7271 C   0  0  0  0  0  0  0  0  0  0  0  0
    8.5560    2.5818   19.0034 Cl  0  0  0  0  0  0  0  0  0  0  0  0
    1.6466    4.5288   23.5599 C   0  0  0  0  0  0  0  0  0  0  0  0
    1.6720    4.1776   25.0737 C   0  0  0  0  0  0  0  0  0  0  0  0
    0.4140    3.5361   25.5926 C   0  0  0  0  0  0  0  0  0  0  0  0
   -0.7394    3.5397   24.9133 C   0  0  0  0  0  0  0  0  0  0  0  0
   -0.8863    4.2136   23.5836 C   0  0  0  0  0  0  0  0  0  0  0  0
    0.2763    5.1556   23.2334 C   0  0  0  0  0  0  0  0  0  0  0  0
    4.1987    4.9202   24.7654 H   0  0  0  0  0  0  0  0  0  0  0  0
    4.3699    3.8459   23.3614 H   0  0  0  0  0  0  0  0  0  0  0  0
    5.0306    5.5050   23.3659 H   0  0  0  0  0  0  0  0  0  0  0  0
    3.3740    7.3083   23.2462 H   0  0  0  0  0  0  0  0  0  0  0  0
    2.5238    6.5370   21.2161 H   0  0  0  0  0  0  0  0  0  0  0  0
    2.3353    4.7857   21.0522 H   0  0  0  0  0  0  0  0  0  0  0  0
    4.6883    4.5309   20.8420 H   0  0  0  0  0  0  0  0  0  0  0  0
    6.1244    4.6449   20.1511 H   0  0  0  0  0  0  0  0  0  0  0  0
    7.3675    6.8971   18.6635 H   0  0  0  0  0  0  0  0  0  0  0  0
    8.2549    5.8061   19.7108 H   0  0  0  0  0  0  0  0  0  0  0  0
    8.7426    4.2836   14.4523 H   0  0  0  0  0  0  0  0  0  0  0  0
    9.1116    2.3088   16.1515 H   0  0  0  0  0  0  0  0  0  0  0  0
    1.7221    3.5803   23.0108 H   0  0  0  0  0  0  0  0  0  0  0  0
    1.8642    5.0773   25.6704 H   0  0  0  0  0  0  0  0  0  0  0  0
    2.4946    3.4778   25.2632 H   0  0  0  0  0  0  0  0  0  0  0  0
    0.4576    3.0774   26.5774 H   0  0  0  0  0  0  0  0  0  0  0  0
   -1.6251    3.0768   25.3426 H   0  0  0  0  0  0  0  0  0  0  0  0
   -0.9757    3.4384   22.8129 H   0  0  0  0  0  0  0  0  0  0  0  0
   -1.8205    4.7867   23.5697 H   0  0  0  0  0  0  0  0  0  0  0  0
    0.2110    5.4131   22.1704 H   0  0  0  0  0  0  0  0  0  0  0  0
    0.1556    6.0929   23.7920 H   0  0  0  0  0  0  0  0  0  0  0  0
  1  2  1  0
  2  3  1  0
  2  4  1  0
  4  5  1  0
  5  6  1  0
  6  7  2  0
  6  8  1  0
  8  9  1  0
  9 10  1  0
 10 11  1  0
 11 12  1  0
 12 13  2  0
 13 14  1  0
 14 15  1  0
  2 16  1  0
 16 17  1  0
 17 18  1  0
 18 19  2  0
 19 20  1  0
 20 21  1  0
 14 10  2  0
 21 16  1  0
  1 22  1  0
  1 23  1  0
  1 24  1  0
  3 25  1  0
  4 26  1  0
  4 27  1  0
  5 28  1  0
  8 29  1  0
  9 30  1  0
  9 31  1  0
 12 32  1  0
 13 33  1  0
 16 34  1  0
 17 35  1  0
 17 36  1  0
 18 37  1  0
 19 38  1  0
 20 39  1  0
 20 40  1  0
 21 41  1  0
 21 42  1  0
M  END
>  <Energy>  (848) 
-32.427186566052548

>  <compound_id>  (848) 
63549

>  <target_id>  (848) 
1

>  <reference_id>  (848) 
44

>  <inspiration_ids>  (848) 
[66, 44]

>  <energy_score>  (848) 
-29.021555622547567

>  <distance_score>  (848) 
7.409065394146198

>  <path>  (848) 
/opt/xchem-fragalysis-2/maxwin/BulkDock/SCRATCH/511025/C63549-P44/C63549-P44.minimised.mol

>  <scratch_subdir>  (848) 
/opt/xchem-fragalysis-2/maxwin/BulkDock/SCRATCH/511025/C63549-P44

>  <fragmenstein_runtime>  (848) 
8.981595516204834

>  <fragmenstein_outcome>  (848) 
too moved

>  <fragmenstein_mode>  (848) 
expansion

>  <fragmenstein_error>  (848) 


$$$$
C63550-P66
     RDKit          3D

 49 50  0  0  0  0  0  0  0  0999 V2000
    6.7579    3.0365   29.2191 C   0  0  0  0  0  0  0  0  0  0  0  0
    7.2796    2.2423   28.1057 N   0  0  0  0  0  0  0  0  0  0  0  0
    6.1771    1.5262   27.4561 C   0  0  0  0  0  0  0  0  0  0  0  0
    7.9954    3.1139   27.1533 C   0  0  0  0  0  0  0  0  0  0  0  0
    8.9091    2.3685   26.2132 C   0  0  0  0  0  0  0  0  0  0  0  0
    9.3673    1.0683   26.2634 C   0  0  0  0  0  0  0  0  0  0  0  0
   10.2704    0.7559   25.1975 C   0  0  0  0  0  0  0  0  0  0  0  0
   10.4587    1.8052   24.3196 C   0  0  0  0  0  0  0  0  0  0  0  0
   11.2010    1.9188   23.0090 C   0  0  0  0  0  0  0  0  0  0  0  0
   12.2939    0.9949   22.7591 N   0  0  0  0  0  0  0  0  0  0  0  0
   13.7290    1.2511   22.4182 C   0  0  0  0  0  0  0  0  0  0  0  0
   14.3189    2.2605   22.3519 O   0  0  0  0  0  0  0  0  0  0  0  0
   14.1660   -0.1420   22.0907 N   0  0  0  0  0  0  0  0  0  0  0  0
   15.4712   -0.6617   21.6894 C   0  0  0  0  0  0  0  0  0  0  0  0
   15.8771   -0.5610   20.1754 C   0  0  0  0  0  0  0  0  0  0  0  0
   15.6982    0.8608   19.6401 C   0  0  0  0  0  0  0  0  0  0  0  0
   17.2738   -0.8597   20.0299 O   0  0  0  0  0  0  0  0  0  0  0  0
   15.0955   -1.5706   19.3280 C   0  0  0  0  0  0  0  0  0  0  0  0
   15.5601   -3.0457   19.1201 C   0  0  0  0  0  0  0  0  0  0  0  0
   14.8813   -2.9884   17.7324 C   0  0  0  0  0  0  0  0  0  0  0  0
   15.1156   -1.4658   17.7696 C   0  0  0  0  0  0  0  0  0  0  0  0
    9.6020    3.1992   24.8769 S   0  0  0  0  0  0  0  0  0  0  0  0
    6.2468    2.3944   29.9452 H   0  0  0  0  0  0  0  0  0  0  0  0
    7.5751    3.5263   29.7603 H   0  0  0  0  0  0  0  0  0  0  0  0
    6.0542    3.8074   28.8841 H   0  0  0  0  0  0  0  0  0  0  0  0
    5.6842    0.8582   28.1718 H   0  0  0  0  0  0  0  0  0  0  0  0
    6.5324    0.8902   26.6405 H   0  0  0  0  0  0  0  0  0  0  0  0
    5.4224    2.2119   27.0552 H   0  0  0  0  0  0  0  0  0  0  0  0
    7.2842    3.7311   26.5879 H   0  0  0  0  0  0  0  0  0  0  0  0
    8.6389    3.8050   27.7157 H   0  0  0  0  0  0  0  0  0  0  0  0
    9.0850    0.3693   27.0427 H   0  0  0  0  0  0  0  0  0  0  0  0
   10.7429   -0.2110   25.0804 H   0  0  0  0  0  0  0  0  0  0  0  0
   11.6166    2.9272   22.8991 H   0  0  0  0  0  0  0  0  0  0  0  0
   10.4867    1.7687   22.1910 H   0  0  0  0  0  0  0  0  0  0  0  0
   12.0942    0.0170   22.6432 H   0  0  0  0  0  0  0  0  0  0  0  0
   13.4321   -0.7906   22.3415 H   0  0  0  0  0  0  0  0  0  0  0  0
   16.2159   -0.1180   22.2834 H   0  0  0  0  0  0  0  0  0  0  0  0
   15.5127   -1.7078   22.0143 H   0  0  0  0  0  0  0  0  0  0  0  0
   14.6545    1.1794   19.6200 H   0  0  0  0  0  0  0  0  0  0  0  0
   16.0972    0.9574   18.6240 H   0  0  0  0  0  0  0  0  0  0  0  0
   16.2636    1.5733   20.2520 H   0  0  0  0  0  0  0  0  0  0  0  0
   17.4671   -1.6651   20.5383 H   0  0  0  0  0  0  0  0  0  0  0  0
   14.0865   -1.5869   19.7297 H   0  0  0  0  0  0  0  0  0  0  0  0
   15.1432   -3.7756   19.8192 H   0  0  0  0  0  0  0  0  0  0  0  0
   16.6443   -3.1916   19.0615 H   0  0  0  0  0  0  0  0  0  0  0  0
   15.3913   -3.5288   16.9311 H   0  0  0  0  0  0  0  0  0  0  0  0
   13.8250   -3.2789   17.7405 H   0  0  0  0  0  0  0  0  0  0  0  0
   14.3296   -0.8555   17.3195 H   0  0  0  0  0  0  0  0  0  0  0  0
   16.0825   -1.1656   17.3485 H   0  0  0  0  0  0  0  0  0  0  0  0
  1  2  1  0
  2  3  1  0
  2  4  1  0
  4  5  1  0
  5  6  2  0
  6  7  1  0
  7  8  2  0
  8  9  1  0
  9 10  1  0
 10 11  1  0
 11 12  2  0
 11 13  1  0
 13 14  1  0
 14 15  1  0
 15 16  1  0
 15 17  1  0
 15 18  1  0
 18 19  1  0
 19 20  1  0
 20 21  1  0
  8 22  1  0
 22  5  1  0
 21 18  1  0
  1 23  1  0
  1 24  1  0
  1 25  1  0
  3 26  1  0
  3 27  1  0
  3 28  1  0
  4 29  1  0
  4 30  1  0
  6 31  1  0
  7 32  1  0
  9 33  1  0
  9 34  1  0
 10 35  1  0
 13 36  1  0
 14 37  1  0
 14 38  1  0
 16 39  1  0
 16 40  1  0
 16 41  1  0
 17 42  1  0
 18 43  1  0
 19 44  1  0
 19 45  1  0
 20 46  1  0
 20 47  1  0
 21 48  1  0
 21 49  1  0
M  END
>  <Energy>  (849) 
-15.869781160603045

>  <compound_id>  (849) 
63550

>  <target_id>  (849) 
1

>  <reference_id>  (849) 
66

>  <inspiration_ids>  (849) 
[66, 44]

>  <energy_score>  (849) 
-40.19998656631378

>  <distance_score>  (849) 
10.334208811672205

>  <path>  (849) 
/opt/xchem-fragalysis-2/maxwin/BulkDock/SCRATCH/511025/C63550-P66/C63550-P66.minimised.mol

>  <scratch_subdir>  (849) 
/opt/xchem-fragalysis-2/maxwin/BulkDock/SCRATCH/511025/C63550-P66

>  <fragmenstein_runtime>  (849) 
32.053898096084595

>  <fragmenstein_outcome>  (849) 
too moved

>  <fragmenstein_mode>  (849) 
expansion

>  <fragmenstein_error>  (849) 


$$$$
C63550-P44
     RDKit          3D

 49 50  0  0  0  0  0  0  0  0999 V2000
    2.8502    0.5515   27.3843 C   0  0  0  0  0  0  0  0  0  0  0  0
    4.2954    0.4050   27.2930 N   0  0  0  0  0  0  0  0  0  0  0  0
    4.7489    0.4152   25.9023 C   0  0  0  0  0  0  0  0  0  0  0  0
    4.8185   -0.7434   28.0504 C   0  0  0  0  0  0  0  0  0  0  0  0
    4.5180   -2.1104   27.4915 C   0  0  0  0  0  0  0  0  0  0  0  0
    3.3422   -2.8308   27.5176 C   0  0  0  0  0  0  0  0  0  0  0  0
    3.4760   -4.0995   26.8723 C   0  0  0  0  0  0  0  0  0  0  0  0
    4.7402   -4.3262   26.3507 C   0  0  0  0  0  0  0  0  0  0  0  0
    5.2637   -5.5940   25.7103 C   0  0  0  0  0  0  0  0  0  0  0  0
    5.8812   -5.5509   24.3944 N   0  0  0  0  0  0  0  0  0  0  0  0
    6.2081   -4.3755   23.4896 C   0  0  0  0  0  0  0  0  0  0  0  0
    5.9596   -3.2021   23.6135 O   0  0  0  0  0  0  0  0  0  0  0  0
    7.1025   -5.1456   22.3398 N   0  0  0  0  0  0  0  0  0  0  0  0
    8.2044   -4.4155   20.8286 C   0  0  0  0  0  0  0  0  0  0  0  0
   10.2764   -5.1013   20.9130 C   0  0  0  0  0  0  0  0  0  0  0  0
   11.3263   -4.2385   22.1617 C   0  0  0  0  0  0  0  0  0  0  0  0
   10.6019   -6.5279   21.2429 O   0  0  0  0  0  0  0  0  0  0  0  0
   11.9721   -5.0033   19.9366 C   0  0  0  0  0  0  0  0  0  0  0  0
   12.5174   -4.3313   18.4793 C   0  0  0  0  0  0  0  0  0  0  0  0
   13.9370   -4.5147   19.0218 C   0  0  0  0  0  0  0  0  0  0  0  0
   13.3613   -4.2851   20.4241 C   0  0  0  0  0  0  0  0  0  0  0  0
    5.7839   -3.0384   26.7905 S   0  0  0  0  0  0  0  0  0  0  0  0
    2.3080   -0.2507   26.8786 H   0  0  0  0  0  0  0  0  0  0  0  0
    2.5266    0.5805   28.4307 H   0  0  0  0  0  0  0  0  0  0  0  0
    2.5356    1.5014   26.9374 H   0  0  0  0  0  0  0  0  0  0  0  0
    5.8416    0.3562   25.8523 H   0  0  0  0  0  0  0  0  0  0  0  0
    4.4661    1.3572   25.4191 H   0  0  0  0  0  0  0  0  0  0  0  0
    4.3263   -0.4040   25.3113 H   0  0  0  0  0  0  0  0  0  0  0  0
    5.9040   -0.6113   28.1536 H   0  0  0  0  0  0  0  0  0  0  0  0
    4.4394   -0.6980   29.0804 H   0  0  0  0  0  0  0  0  0  0  0  0
    2.4305   -2.4684   27.9765 H   0  0  0  0  0  0  0  0  0  0  0  0
    2.6892   -4.8388   26.8221 H   0  0  0  0  0  0  0  0  0  0  0  0
    4.4458   -6.3197   25.6292 H   0  0  0  0  0  0  0  0  0  0  0  0
    6.0070   -6.0460   26.3780 H   0  0  0  0  0  0  0  0  0  0  0  0
    6.1643   -6.3992   23.9479 H   0  0  0  0  0  0  0  0  0  0  0  0
    7.0389   -6.1390   22.4760 H   0  0  0  0  0  0  0  0  0  0  0  0
    7.4847   -4.6052   20.0159 H   0  0  0  0  0  0  0  0  0  0  0  0
    7.8937   -3.4296   21.1447 H   0  0  0  0  0  0  0  0  0  0  0  0
   11.6488   -3.2940   21.7547 H   0  0  0  0  0  0  0  0  0  0  0  0
   12.1756   -4.8882   22.3998 H   0  0  0  0  0  0  0  0  0  0  0  0
   10.9508   -4.0225   23.1680 H   0  0  0  0  0  0  0  0  0  0  0  0
   11.4901   -6.5729   21.6384 H   0  0  0  0  0  0  0  0  0  0  0  0
   12.2836   -6.0349   20.0461 H   0  0  0  0  0  0  0  0  0  0  0  0
   12.3121   -4.8123   17.5233 H   0  0  0  0  0  0  0  0  0  0  0  0
   12.3420   -3.2631   18.3070 H   0  0  0  0  0  0  0  0  0  0  0  0
   14.6728   -3.7799   18.6848 H   0  0  0  0  0  0  0  0  0  0  0  0
   14.3638   -5.5120   18.9035 H   0  0  0  0  0  0  0  0  0  0  0  0
   13.3341   -3.2213   20.6722 H   0  0  0  0  0  0  0  0  0  0  0  0
   13.9282   -4.8043   21.2042 H   0  0  0  0  0  0  0  0  0  0  0  0
  1  2  1  0
  2  3  1  0
  2  4  1  0
  4  5  1  0
  5  6  2  0
  6  7  1  0
  7  8  2  0
  8  9  1  0
  9 10  1  0
 10 11  1  0
 11 12  2  0
 11 13  1  0
 13 14  1  0
 14 15  1  0
 15 16  1  0
 15 17  1  0
 15 18  1  0
 18 19  1  0
 19 20  1  0
 20 21  1  0
  8 22  1  0
 22  5  1  0
 21 18  1  0
  1 23  1  0
  1 24  1  0
  1 25  1  0
  3 26  1  0
  3 27  1  0
  3 28  1  0
  4 29  1  0
  4 30  1  0
  6 31  1  0
  7 32  1  0
  9 33  1  0
  9 34  1  0
 10 35  1  0
 13 36  1  0
 14 37  1  0
 14 38  1  0
 16 39  1  0
 16 40  1  0
 16 41  1  0
 17 42  1  0
 18 43  1  0
 19 44  1  0
 19 45  1  0
 20 46  1  0
 20 47  1  0
 21 48  1  0
 21 49  1  0
M  END
>  <Energy>  (850) 
349.6017387810432

>  <compound_id>  (850) 
63550

>  <target_id>  (850) 
1

>  <reference_id>  (850) 
44

>  <inspiration_ids>  (850) 
[66, 44]

>  <energy_score>  (850) 
325.2715333753358

>  <distance_score>  (850) 
8.109820085081958

>  <path>  (850) 
/opt/xchem-fragalysis-2/maxwin/BulkDock/SCRATCH/511025/C63550-P44/C63550-P44.minimised.mol

>  <scratch_subdir>  (850) 
/opt/xchem-fragalysis-2/maxwin/BulkDock/SCRATCH/511025/C63550-P44

>  <fragmenstein_runtime>  (850) 
41.34447240829468

>  <fragmenstein_outcome>  (850) 
too moved

>  <fragmenstein_mode>  (850) 
expansion

>  <fragmenstein_error>  (850) 


$$$$
C63551-P66
     RDKit          3D

 51 52  0  0  0  0  0  0  0  0999 V2000
    9.8406   -1.8361   15.0976 C   0  0  0  0  0  0  0  0  0  0  0  0
    8.4793   -1.9841   15.4956 O   0  0  0  0  0  0  0  0  0  0  0  0
    7.5989   -0.8893   15.8279 C   0  0  0  0  0  0  0  0  0  0  0  0
    7.5880   -0.1606   17.6096 C   0  0  0  0  0  0  0  0  0  0  0  0
    8.3303   -0.1881   18.7792 C   0  0  0  0  0  0  0  0  0  0  0  0
    7.7107    0.8504   19.9203 S   0  0  0  0  0  0  0  0  0  0  0  0
    6.9553   -0.8376   20.1811 C   0  0  0  0  0  0  0  0  0  0  0  0
    5.7960   -1.9948   21.2667 C   0  0  0  0  0  0  0  0  0  0  0  0
    5.3225   -1.8690   22.9696 N   0  0  0  0  0  0  0  0  0  0  0  0
    3.9673   -2.1948   23.6859 C   0  0  0  0  0  0  0  0  0  0  0  0
    2.9884   -2.6742   23.2462 O   0  0  0  0  0  0  0  0  0  0  0  0
    4.2388   -1.6370   25.0374 N   0  0  0  0  0  0  0  0  0  0  0  0
    3.3642   -1.4335   26.1618 C   0  0  0  0  0  0  0  0  0  0  0  0
    3.8650   -0.6110   27.3767 C   0  0  0  0  0  0  0  0  0  0  0  0
    4.2541   -1.5848   28.5013 C   0  0  0  0  0  0  0  0  0  0  0  0
    5.0631    0.1063   27.0177 O   0  0  0  0  0  0  0  0  0  0  0  0
    2.8024    0.4306   27.9058 C   0  0  0  0  0  0  0  0  0  0  0  0
    1.4096   -0.1801   28.2038 C   0  0  0  0  0  0  0  0  0  0  0  0
    0.2415    0.8002   28.0541 C   0  0  0  0  0  0  0  0  0  0  0  0
    0.6312    2.2053   28.4748 C   0  0  0  0  0  0  0  0  0  0  0  0
    1.7580    2.7569   27.6073 C   0  0  0  0  0  0  0  0  0  0  0  0
    2.6914    1.6889   27.0233 C   0  0  0  0  0  0  0  0  0  0  0  0
    6.6606   -0.6623   18.5795 C   0  0  0  0  0  0  0  0  0  0  0  0
   10.5052   -1.8735   15.9620 H   0  0  0  0  0  0  0  0  0  0  0  0
   10.1376   -2.7241   14.5375 H   0  0  0  0  0  0  0  0  0  0  0  0
   10.0285   -0.9288   14.5192 H   0  0  0  0  0  0  0  0  0  0  0  0
    6.6987   -1.2922   15.4994 H   0  0  0  0  0  0  0  0  0  0  0  0
    7.7749   -0.1475   15.0465 H   0  0  0  0  0  0  0  0  0  0  0  0
    9.2716   -0.3492   19.2307 H   0  0  0  0  0  0  0  0  0  0  0  0
    5.1916   -2.6895   20.6661 H   0  0  0  0  0  0  0  0  0  0  0  0
    6.4104   -2.8833   21.2148 H   0  0  0  0  0  0  0  0  0  0  0  0
    5.9630   -1.5520   23.6252 H   0  0  0  0  0  0  0  0  0  0  0  0
    5.2015   -1.3853   25.1027 H   0  0  0  0  0  0  0  0  0  0  0  0
    2.9435   -2.3948   26.4620 H   0  0  0  0  0  0  0  0  0  0  0  0
    2.5342   -0.8986   25.7268 H   0  0  0  0  0  0  0  0  0  0  0  0
    5.0619   -2.2497   28.1772 H   0  0  0  0  0  0  0  0  0  0  0  0
    3.4073   -2.1993   28.8228 H   0  0  0  0  0  0  0  0  0  0  0  0
    4.6365   -1.0436   29.3743 H   0  0  0  0  0  0  0  0  0  0  0  0
    5.4314    0.4887   27.8306 H   0  0  0  0  0  0  0  0  0  0  0  0
    3.1941    0.8043   28.8648 H   0  0  0  0  0  0  0  0  0  0  0  0
    1.4223   -0.5581   29.2346 H   0  0  0  0  0  0  0  0  0  0  0  0
    1.1997   -1.0527   27.5777 H   0  0  0  0  0  0  0  0  0  0  0  0
   -0.6075    0.4482   28.6513 H   0  0  0  0  0  0  0  0  0  0  0  0
   -0.0961    0.8151   27.0117 H   0  0  0  0  0  0  0  0  0  0  0  0
   -0.2356    2.8739   28.4236 H   0  0  0  0  0  0  0  0  0  0  0  0
    0.9527    2.1911   29.5238 H   0  0  0  0  0  0  0  0  0  0  0  0
    2.3416    3.4686   28.2043 H   0  0  0  0  0  0  0  0  0  0  0  0
    1.3346    3.3370   26.7779 H   0  0  0  0  0  0  0  0  0  0  0  0
    2.3393    1.4181   26.0247 H   0  0  0  0  0  0  0  0  0  0  0  0
    3.6755    2.1490   26.8808 H   0  0  0  0  0  0  0  0  0  0  0  0
    5.8333   -1.1929   18.1074 H   0  0  0  0  0  0  0  0  0  0  0  0
  1  2  1  0
  2  3  1  0
  3  4  1  0
  4  5  2  0
  5  6  1  0
  6  7  1  0
  7  8  1  0
  8  9  1  0
  9 10  1  0
 10 11  2  0
 10 12  1  0
 12 13  1  0
 13 14  1  0
 14 15  1  0
 14 16  1  0
 14 17  1  0
 17 18  1  0
 18 19  1  0
 19 20  1  0
 20 21  1  0
 21 22  1  0
  7 23  2  0
 23  4  1  0
 22 17  1  0
  1 24  1  0
  1 25  1  0
  1 26  1  0
  3 27  1  0
  3 28  1  0
  5 29  1  0
  8 30  1  0
  8 31  1  0
  9 32  1  0
 12 33  1  0
 13 34  1  0
 13 35  1  0
 15 36  1  0
 15 37  1  0
 15 38  1  0
 16 39  1  0
 17 40  1  0
 18 41  1  0
 18 42  1  0
 19 43  1  0
 19 44  1  0
 20 45  1  0
 20 46  1  0
 21 47  1  0
 21 48  1  0
 22 49  1  0
 22 50  1  0
 23 51  1  0
M  END
>  <Energy>  (851) 
305.07851701420213

>  <compound_id>  (851) 
63551

>  <target_id>  (851) 
1

>  <reference_id>  (851) 
66

>  <inspiration_ids>  (851) 
[66, 44]

>  <energy_score>  (851) 
295.62463932195817

>  <distance_score>  (851) 
5.456125487472838

>  <path>  (851) 
/opt/xchem-fragalysis-2/maxwin/BulkDock/SCRATCH/511025/C63551-P66/C63551-P66.minimised.mol

>  <scratch_subdir>  (851) 
/opt/xchem-fragalysis-2/maxwin/BulkDock/SCRATCH/511025/C63551-P66

>  <fragmenstein_runtime>  (851) 
16.37548828125

>  <fragmenstein_outcome>  (851) 
too moved

>  <fragmenstein_mode>  (851) 
expansion

>  <fragmenstein_error>  (851) 


$$$$
C63551-P44
     RDKit          3D

 51 52  0  0  0  0  0  0  0  0999 V2000
   14.4649   -3.1992   18.4878 C   0  0  0  0  0  0  0  0  0  0  0  0
   13.7538   -3.6685   19.6240 O   0  0  0  0  0  0  0  0  0  0  0  0
   13.0027   -4.8558   19.3065 C   0  0  0  0  0  0  0  0  0  0  0  0
   12.2787   -5.4396   20.5156 C   0  0  0  0  0  0  0  0  0  0  0  0
   12.6385   -5.1315   21.7873 C   0  0  0  0  0  0  0  0  0  0  0  0
   11.3685   -3.9398   21.9723 S   0  0  0  0  0  0  0  0  0  0  0  0
    9.8351   -5.0512   20.7870 C   0  0  0  0  0  0  0  0  0  0  0  0
    7.8229   -4.4736   21.0771 C   0  0  0  0  0  0  0  0  0  0  0  0
    6.9237   -5.4296   22.5547 N   0  0  0  0  0  0  0  0  0  0  0  0
    6.1079   -4.8473   23.9037 C   0  0  0  0  0  0  0  0  0  0  0  0
    5.8452   -3.7236   24.1870 O   0  0  0  0  0  0  0  0  0  0  0  0
    5.7658   -6.1017   24.5836 N   0  0  0  0  0  0  0  0  0  0  0  0
    4.9252   -6.3575   25.7484 C   0  0  0  0  0  0  0  0  0  0  0  0
    4.8504   -5.3933   27.0361 C   0  0  0  0  0  0  0  0  0  0  0  0
    4.2197   -6.3168   28.1166 C   0  0  0  0  0  0  0  0  0  0  0  0
    6.1861   -5.1888   27.5177 O   0  0  0  0  0  0  0  0  0  0  0  0
    4.0130   -4.0137   26.9180 C   0  0  0  0  0  0  0  0  0  0  0  0
    3.1272   -3.7042   28.1674 C   0  0  0  0  0  0  0  0  0  0  0  0
    2.4244   -2.3411   28.2045 C   0  0  0  0  0  0  0  0  0  0  0  0
    3.2997   -1.1689   27.7876 C   0  0  0  0  0  0  0  0  0  0  0  0
    4.7438   -1.5883   27.5740 C   0  0  0  0  0  0  0  0  0  0  0  0
    4.8585   -2.7536   26.5848 C   0  0  0  0  0  0  0  0  0  0  0  0
   10.9425   -5.9904   20.8570 C   0  0  0  0  0  0  0  0  0  0  0  0
   15.0198   -2.3025   18.7765 H   0  0  0  0  0  0  0  0  0  0  0  0
   15.1774   -3.9531   18.1395 H   0  0  0  0  0  0  0  0  0  0  0  0
   13.7713   -2.9341   17.6839 H   0  0  0  0  0  0  0  0  0  0  0  0
   13.7291   -5.6023   18.9801 H   0  0  0  0  0  0  0  0  0  0  0  0
   12.3316   -4.6272   18.4770 H   0  0  0  0  0  0  0  0  0  0  0  0
   13.5930   -4.8521   22.2110 H   0  0  0  0  0  0  0  0  0  0  0  0
    7.2291   -4.6739   20.1521 H   0  0  0  0  0  0  0  0  0  0  0  0
    7.5811   -3.4389   21.2990 H   0  0  0  0  0  0  0  0  0  0  0  0
    6.9112   -6.4391   22.5614 H   0  0  0  0  0  0  0  0  0  0  0  0
    6.0793   -6.8758   24.0236 H   0  0  0  0  0  0  0  0  0  0  0  0
    3.9069   -6.4989   25.3708 H   0  0  0  0  0  0  0  0  0  0  0  0
    5.2757   -7.3429   26.0805 H   0  0  0  0  0  0  0  0  0  0  0  0
    4.2638   -5.8698   29.1149 H   0  0  0  0  0  0  0  0  0  0  0  0
    3.1840   -6.5754   27.8741 H   0  0  0  0  0  0  0  0  0  0  0  0
    4.7859   -7.2518   28.2149 H   0  0  0  0  0  0  0  0  0  0  0  0
    6.2226   -4.3423   27.9907 H   0  0  0  0  0  0  0  0  0  0  0  0
    3.3178   -4.1720   26.0853 H   0  0  0  0  0  0  0  0  0  0  0  0
    3.7584   -3.7604   29.0638 H   0  0  0  0  0  0  0  0  0  0  0  0
    2.3544   -4.4739   28.2758 H   0  0  0  0  0  0  0  0  0  0  0  0
    2.0680   -2.1716   29.2290 H   0  0  0  0  0  0  0  0  0  0  0  0
    1.5186   -2.3634   27.5966 H   0  0  0  0  0  0  0  0  0  0  0  0
    2.9086   -0.7251   26.8653 H   0  0  0  0  0  0  0  0  0  0  0  0
    3.2514   -0.3788   28.5460 H   0  0  0  0  0  0  0  0  0  0  0  0
    5.2005   -1.8701   28.5306 H   0  0  0  0  0  0  0  0  0  0  0  0
    5.3175   -0.7345   27.1945 H   0  0  0  0  0  0  0  0  0  0  0  0
    4.5244   -2.3707   25.6136 H   0  0  0  0  0  0  0  0  0  0  0  0
    5.9193   -2.9902   26.4702 H   0  0  0  0  0  0  0  0  0  0  0  0
   10.8782   -6.9388   21.3920 H   0  0  0  0  0  0  0  0  0  0  0  0
  1  2  1  0
  2  3  1  0
  3  4  1  0
  4  5  2  0
  5  6  1  0
  6  7  1  0
  7  8  1  0
  8  9  1  0
  9 10  1  0
 10 11  2  0
 10 12  1  0
 12 13  1  0
 13 14  1  0
 14 15  1  0
 14 16  1  0
 14 17  1  0
 17 18  1  0
 18 19  1  0
 19 20  1  0
 20 21  1  0
 21 22  1  0
  7 23  2  0
 23  4  1  0
 22 17  1  0
  1 24  1  0
  1 25  1  0
  1 26  1  0
  3 27  1  0
  3 28  1  0
  5 29  1  0
  8 30  1  0
  8 31  1  0
  9 32  1  0
 12 33  1  0
 13 34  1  0
 13 35  1  0
 15 36  1  0
 15 37  1  0
 15 38  1  0
 16 39  1  0
 17 40  1  0
 18 41  1  0
 18 42  1  0
 19 43  1  0
 19 44  1  0
 20 45  1  0
 20 46  1  0
 21 47  1  0
 21 48  1  0
 22 49  1  0
 22 50  1  0
 23 51  1  0
M  END
>  <Energy>  (852) 
303.02950576595964

>  <compound_id>  (852) 
63551

>  <target_id>  (852) 
1

>  <reference_id>  (852) 
44

>  <inspiration_ids>  (852) 
[66, 44]

>  <energy_score>  (852) 
293.5756280737129

>  <distance_score>  (852) 
7.766980956361796

>  <path>  (852) 
/opt/xchem-fragalysis-2/maxwin/BulkDock/SCRATCH/511025/C63551-P44/C63551-P44.minimised.mol

>  <scratch_subdir>  (852) 
/opt/xchem-fragalysis-2/maxwin/BulkDock/SCRATCH/511025/C63551-P44

>  <fragmenstein_runtime>  (852) 
13.919869661331177

>  <fragmenstein_outcome>  (852) 
too moved

>  <fragmenstein_mode>  (852) 
expansion

>  <fragmenstein_error>  (852) 


$$$$
C63552-P66
     RDKit          3D

 41 42  0  0  0  0  0  0  0  0999 V2000
    3.2812   -2.8890   26.8826 C   0  0  0  0  0  0  0  0  0  0  0  0
    3.7712   -1.6542   26.0566 C   0  0  0  0  0  0  0  0  0  0  0  0
    5.1605   -1.3777   26.4370 O   0  0  0  0  0  0  0  0  0  0  0  0
    3.9120   -2.1754   24.4685 C   0  0  0  0  0  0  0  0  0  0  0  0
    4.5590   -1.3192   23.4429 N   0  0  0  0  0  0  0  0  0  0  0  0
    5.4772   -1.7359   21.9882 C   0  0  0  0  0  0  0  0  0  0  0  0
    5.7619   -2.8126   21.6973 O   0  0  0  0  0  0  0  0  0  0  0  0
    6.0474   -0.3490   21.0667 N   0  0  0  0  0  0  0  0  0  0  0  0
    7.0408   -0.2437   19.4626 C   0  0  0  0  0  0  0  0  0  0  0  0
    6.3327   -0.8041   17.8199 C   0  0  0  0  0  0  0  0  0  0  0  0
    7.1891    0.1041   16.0519 S   0  0  0  0  0  0  0  0  0  0  0  0
    5.8370   -1.1247   14.6356 C   0  0  0  0  0  0  0  0  0  0  0  0
    5.1612   -1.0111   15.7190 C   0  0  0  0  0  0  0  0  0  0  0  0
    6.5246   -0.8638   16.1951 C   0  0  0  0  0  0  0  0  0  0  0  0
    8.2298   -2.1370   15.0317 Br  0  0  0  0  0  0  0  0  0  0  0  0
    3.0687   -0.4318   26.7691 C   0  0  0  0  0  0  0  0  0  0  0  0
    3.2293    0.9674   26.2227 C   0  0  0  0  0  0  0  0  0  0  0  0
    2.3371    1.8324   27.1096 C   0  0  0  0  0  0  0  0  0  0  0  0
    1.1391    0.9591   27.4410 C   0  0  0  0  0  0  0  0  0  0  0  0
    1.6421   -0.4858   27.3583 C   0  0  0  0  0  0  0  0  0  0  0  0
    3.7361   -2.9015   27.8795 H   0  0  0  0  0  0  0  0  0  0  0  0
    3.5098   -3.8458   26.4098 H   0  0  0  0  0  0  0  0  0  0  0  0
    2.1961   -2.9121   26.9965 H   0  0  0  0  0  0  0  0  0  0  0  0
    5.6574   -2.1922   26.2036 H   0  0  0  0  0  0  0  0  0  0  0  0
    2.9537   -2.4217   24.0524 H   0  0  0  0  0  0  0  0  0  0  0  0
    4.4313   -3.0865   24.5735 H   0  0  0  0  0  0  0  0  0  0  0  0
    4.3527   -0.3303   23.4415 H   0  0  0  0  0  0  0  0  0  0  0  0
    5.6241    0.4707   21.4248 H   0  0  0  0  0  0  0  0  0  0  0  0
    7.9565   -0.7750   19.6285 H   0  0  0  0  0  0  0  0  0  0  0  0
    7.3128    0.8096   19.3608 H   0  0  0  0  0  0  0  0  0  0  0  0
    6.5050   -1.1765   13.7817 H   0  0  0  0  0  0  0  0  0  0  0  0
    4.1803   -1.2457   16.0985 H   0  0  0  0  0  0  0  0  0  0  0  0
    3.6518   -0.3616   27.7097 H   0  0  0  0  0  0  0  0  0  0  0  0
    4.2699    1.2805   26.3295 H   0  0  0  0  0  0  0  0  0  0  0  0
    2.9217    1.0355   25.1816 H   0  0  0  0  0  0  0  0  0  0  0  0
    2.8718    2.0896   28.0322 H   0  0  0  0  0  0  0  0  0  0  0  0
    2.0503    2.7678   26.6202 H   0  0  0  0  0  0  0  0  0  0  0  0
    0.7344    1.1905   28.4317 H   0  0  0  0  0  0  0  0  0  0  0  0
    0.3323    1.1294   26.7217 H   0  0  0  0  0  0  0  0  0  0  0  0
    1.6750   -0.9150   28.3684 H   0  0  0  0  0  0  0  0  0  0  0  0
    0.9512   -1.1063   26.8008 H   0  0  0  0  0  0  0  0  0  0  0  0
  1  2  1  0
  2  3  1  0
  2  4  1  0
  4  5  1  0
  5  6  1  0
  6  7  2  0
  6  8  1  0
  8  9  1  0
  9 10  1  0
 10 11  1  0
 11 12  1  0
 12 13  2  0
 13 14  1  0
 14 15  1  0
  2 16  1  0
 16 17  1  0
 17 18  1  0
 18 19  1  0
 19 20  1  0
 14 10  2  0
 20 16  1  0
  1 21  1  0
  1 22  1  0
  1 23  1  0
  3 24  1  0
  4 25  1  0
  4 26  1  0
  5 27  1  0
  8 28  1  0
  9 29  1  0
  9 30  1  0
 12 31  1  0
 13 32  1  0
 16 33  1  0
 17 34  1  0
 17 35  1  0
 18 36  1  0
 18 37  1  0
 19 38  1  0
 19 39  1  0
 20 40  1  0
 20 41  1  0
M  END
>  <Energy>  (853) 
543.37946942250016

>  <compound_id>  (853) 
63552

>  <target_id>  (853) 
1

>  <reference_id>  (853) 
66

>  <inspiration_ids>  (853) 
[66, 44]

>  <energy_score>  (853) 
543.9622724982253

>  <distance_score>  (853) 
6.66316386617363

>  <path>  (853) 
/opt/xchem-fragalysis-2/maxwin/BulkDock/SCRATCH/511025/C63552-P66/C63552-P66.minimised.mol

>  <scratch_subdir>  (853) 
/opt/xchem-fragalysis-2/maxwin/BulkDock/SCRATCH/511025/C63552-P66

>  <fragmenstein_runtime>  (853) 
10.376573324203491

>  <fragmenstein_outcome>  (853) 
too moved

>  <fragmenstein_mode>  (853) 
expansion

>  <fragmenstein_error>  (853) 


$$$$
C63552-P44
     RDKit          3D

 41 42  0  0  0  0  0  0  0  0999 V2000
    7.1303   -1.9901   28.1879 C   0  0  0  0  0  0  0  0  0  0  0  0
    6.9075   -0.9077   27.1238 C   0  0  0  0  0  0  0  0  0  0  0  0
    6.5583   -1.5645   25.9083 O   0  0  0  0  0  0  0  0  0  0  0  0
    8.2418   -0.0872   26.9235 C   0  0  0  0  0  0  0  0  0  0  0  0
    9.3656   -0.6874   26.1762 N   0  0  0  0  0  0  0  0  0  0  0  0
   10.5083   -1.5377   26.6430 C   0  0  0  0  0  0  0  0  0  0  0  0
   10.7298   -1.9887   27.7034 O   0  0  0  0  0  0  0  0  0  0  0  0
   11.3465   -1.5634   25.3764 N   0  0  0  0  0  0  0  0  0  0  0  0
   12.7002   -2.0662   25.1398 C   0  0  0  0  0  0  0  0  0  0  0  0
   12.9475   -2.7141   23.7896 C   0  0  0  0  0  0  0  0  0  0  0  0
   12.3560   -4.3103   23.5103 S   0  0  0  0  0  0  0  0  0  0  0  0
   12.9687   -4.3675   21.9158 C   0  0  0  0  0  0  0  0  0  0  0  0
   13.6828   -3.2366   21.6037 C   0  0  0  0  0  0  0  0  0  0  0  0
   13.6643   -2.2959   22.6739 C   0  0  0  0  0  0  0  0  0  0  0  0
   14.5180   -0.6223   22.4065 Br  0  0  0  0  0  0  0  0  0  0  0  0
    5.6968    0.0171   27.5226 C   0  0  0  0  0  0  0  0  0  0  0  0
    5.3024    1.0774   26.4813 C   0  0  0  0  0  0  0  0  0  0  0  0
    3.9238    1.5664   26.9210 C   0  0  0  0  0  0  0  0  0  0  0  0
    3.2793    0.3904   27.6443 C   0  0  0  0  0  0  0  0  0  0  0  0
    4.3456   -0.7049   27.7041 C   0  0  0  0  0  0  0  0  0  0  0  0
    7.9629   -2.6464   27.9123 H   0  0  0  0  0  0  0  0  0  0  0  0
    6.2562   -2.6436   28.2805 H   0  0  0  0  0  0  0  0  0  0  0  0
    7.3455   -1.5518   29.1675 H   0  0  0  0  0  0  0  0  0  0  0  0
    7.2044   -2.2805   25.7306 H   0  0  0  0  0  0  0  0  0  0  0  0
    8.6310    0.2175   27.9016 H   0  0  0  0  0  0  0  0  0  0  0  0
    8.0193    0.8241   26.3608 H   0  0  0  0  0  0  0  0  0  0  0  0
    9.4410   -0.5449   25.1949 H   0  0  0  0  0  0  0  0  0  0  0  0
   10.8988   -1.0113   24.6689 H   0  0  0  0  0  0  0  0  0  0  0  0
   12.9383   -2.7669   25.9483 H   0  0  0  0  0  0  0  0  0  0  0  0
   13.3671   -1.2068   25.2662 H   0  0  0  0  0  0  0  0  0  0  0  0
   12.7959   -5.2333   21.2906 H   0  0  0  0  0  0  0  0  0  0  0  0
   14.1702   -3.0930   20.6472 H   0  0  0  0  0  0  0  0  0  0  0  0
    5.9476    0.5283   28.4627 H   0  0  0  0  0  0  0  0  0  0  0  0
    6.0157    1.9053   26.4336 H   0  0  0  0  0  0  0  0  0  0  0  0
    5.2310    0.6352   25.4807 H   0  0  0  0  0  0  0  0  0  0  0  0
    4.0262    2.4137   27.6088 H   0  0  0  0  0  0  0  0  0  0  0  0
    3.3259    1.9037   26.0685 H   0  0  0  0  0  0  0  0  0  0  0  0
    2.9781    0.6905   28.6542 H   0  0  0  0  0  0  0  0  0  0  0  0
    2.3821    0.0364   27.1268 H   0  0  0  0  0  0  0  0  0  0  0  0
    4.1736   -1.4224   26.8930 H   0  0  0  0  0  0  0  0  0  0  0  0
    4.2961   -1.2541   28.6495 H   0  0  0  0  0  0  0  0  0  0  0  0
  1  2  1  0
  2  3  1  0
  2  4  1  0
  4  5  1  0
  5  6  1  0
  6  7  2  0
  6  8  1  0
  8  9  1  0
  9 10  1  0
 10 11  1  0
 11 12  1  0
 12 13  2  0
 13 14  1  0
 14 15  1  0
  2 16  1  0
 16 17  1  0
 17 18  1  0
 18 19  1  0
 19 20  1  0
 14 10  2  0
 20 16  1  0
  1 21  1  0
  1 22  1  0
  1 23  1  0
  3 24  1  0
  4 25  1  0
  4 26  1  0
  5 27  1  0
  8 28  1  0
  9 29  1  0
  9 30  1  0
 12 31  1  0
 13 32  1  0
 16 33  1  0
 17 34  1  0
 17 35  1  0
 18 36  1  0
 18 37  1  0
 19 38  1  0
 19 39  1  0
 20 40  1  0
 20 41  1  0
M  END
>  <Energy>  (854) 
-35.818340132647819

>  <compound_id>  (854) 
63552

>  <target_id>  (854) 
1

>  <reference_id>  (854) 
44

>  <inspiration_ids>  (854) 
[66, 44]

>  <energy_score>  (854) 
-35.23553705691745

>  <distance_score>  (854) 
7.895240899374679

>  <path>  (854) 
/opt/xchem-fragalysis-2/maxwin/BulkDock/SCRATCH/511025/C63552-P44/C63552-P44.minimised.mol

>  <scratch_subdir>  (854) 
/opt/xchem-fragalysis-2/maxwin/BulkDock/SCRATCH/511025/C63552-P44

>  <fragmenstein_runtime>  (854) 
11.673928260803223

>  <fragmenstein_outcome>  (854) 
too moved

>  <fragmenstein_mode>  (854) 
expansion

>  <fragmenstein_error>  (854) 


$$$$
C63553-P66
     RDKit          3D

 47 48  0  0  0  0  0  0  0  0999 V2000
   10.2469    0.8093   13.7808 C   0  0  0  0  0  0  0  0  0  0  0  0
   10.6377   -0.5033   14.3615 C   0  0  0  0  0  0  0  0  0  0  0  0
   12.0162   -0.9097   14.3189 C   0  0  0  0  0  0  0  0  0  0  0  0
   12.2094   -2.1491   14.8509 C   0  0  0  0  0  0  0  0  0  0  0  0
   10.7465   -2.8834   15.2405 S   0  0  0  0  0  0  0  0  0  0  0  0
    9.7735   -1.4578   15.0056 C   0  0  0  0  0  0  0  0  0  0  0  0
    8.0547   -1.3021   15.5280 C   0  0  0  0  0  0  0  0  0  0  0  0
    7.5903   -0.0096   16.8075 N   0  0  0  0  0  0  0  0  0  0  0  0
    7.9106    0.0584   18.5471 C   0  0  0  0  0  0  0  0  0  0  0  0
    8.4155   -0.7806   19.2177 O   0  0  0  0  0  0  0  0  0  0  0  0
    7.4780    1.5214   18.9349 N   0  0  0  0  0  0  0  0  0  0  0  0
    7.6711    2.3034   20.2199 C   0  0  0  0  0  0  0  0  0  0  0  0
    8.7918    3.1227   20.9043 C   0  0  0  0  0  0  0  0  0  0  0  0
    9.7180    2.2349   21.7246 C   0  0  0  0  0  0  0  0  0  0  0  0
    9.5504    3.6677   19.8267 O   0  0  0  0  0  0  0  0  0  0  0  0
    8.2616    4.4340   21.7745 C   0  0  0  0  0  0  0  0  0  0  0  0
    6.8125    4.9125   21.4739 C   0  0  0  0  0  0  0  0  0  0  0  0
    6.2818    6.0519   22.3419 C   0  0  0  0  0  0  0  0  0  0  0  0
    6.4313    5.7468   23.8195 C   0  0  0  0  0  0  0  0  0  0  0  0
    7.8945    5.4974   24.1359 C   0  0  0  0  0  0  0  0  0  0  0  0
    8.5218    4.3783   23.2994 C   0  0  0  0  0  0  0  0  0  0  0  0
   10.0190    1.5532   14.5470 H   0  0  0  0  0  0  0  0  0  0  0  0
   11.0440    1.2225   13.1527 H   0  0  0  0  0  0  0  0  0  0  0  0
    9.3840    0.6650   13.1364 H   0  0  0  0  0  0  0  0  0  0  0  0
   12.8225   -0.3050   13.9236 H   0  0  0  0  0  0  0  0  0  0  0  0
   13.1443   -2.6696   14.9830 H   0  0  0  0  0  0  0  0  0  0  0  0
    7.6222   -0.8663   14.6270 H   0  0  0  0  0  0  0  0  0  0  0  0
    7.6330   -2.2847   15.5906 H   0  0  0  0  0  0  0  0  0  0  0  0
    7.0771    0.8116   16.5253 H   0  0  0  0  0  0  0  0  0  0  0  0
    7.1550    2.0022   18.1124 H   0  0  0  0  0  0  0  0  0  0  0  0
    7.2485    1.7441   21.0067 H   0  0  0  0  0  0  0  0  0  0  0  0
    7.1019    3.1657   19.9250 H   0  0  0  0  0  0  0  0  0  0  0  0
    9.3742    2.0562   22.7374 H   0  0  0  0  0  0  0  0  0  0  0  0
    9.8388    1.2609   21.2483 H   0  0  0  0  0  0  0  0  0  0  0  0
   10.7189    2.6770   21.7922 H   0  0  0  0  0  0  0  0  0  0  0  0
    9.6386    2.9388   19.1696 H   0  0  0  0  0  0  0  0  0  0  0  0
    8.8935    5.2676   21.4286 H   0  0  0  0  0  0  0  0  0  0  0  0
    6.1177    4.0919   21.6049 H   0  0  0  0  0  0  0  0  0  0  0  0
    6.7475    5.2278   20.4253 H   0  0  0  0  0  0  0  0  0  0  0  0
    5.2263    6.2302   22.1063 H   0  0  0  0  0  0  0  0  0  0  0  0
    6.8218    6.9747   22.0969 H   0  0  0  0  0  0  0  0  0  0  0  0
    5.8312    4.8780   24.0993 H   0  0  0  0  0  0  0  0  0  0  0  0
    6.0645    6.5931   24.4110 H   0  0  0  0  0  0  0  0  0  0  0  0
    8.4610    6.4218   23.9644 H   0  0  0  0  0  0  0  0  0  0  0  0
    8.0061    5.2598   25.2004 H   0  0  0  0  0  0  0  0  0  0  0  0
    8.1890    3.4367   23.7107 H   0  0  0  0  0  0  0  0  0  0  0  0
    9.6059    4.4030   23.4708 H   0  0  0  0  0  0  0  0  0  0  0  0
  1  2  1  0
  2  3  1  0
  3  4  2  0
  4  5  1  0
  5  6  1  0
  6  7  1  0
  7  8  1  0
  8  9  1  0
  9 10  2  0
  9 11  1  0
 11 12  1  0
 12 13  1  0
 13 14  1  0
 13 15  1  0
 13 16  1  0
 16 17  1  0
 17 18  1  0
 18 19  1  0
 19 20  1  0
 20 21  1  0
  6  2  2  0
 21 16  1  0
  1 22  1  0
  1 23  1  0
  1 24  1  0
  3 25  1  0
  4 26  1  0
  7 27  1  0
  7 28  1  0
  8 29  1  0
 11 30  1  0
 12 31  1  0
 12 32  1  0
 14 33  1  0
 14 34  1  0
 14 35  1  0
 15 36  1  0
 16 37  1  0
 17 38  1  0
 17 39  1  0
 18 40  1  0
 18 41  1  0
 19 42  1  0
 19 43  1  0
 20 44  1  0
 20 45  1  0
 21 46  1  0
 21 47  1  0
M  END
>  <Energy>  (855) 
113.82538552195864

>  <compound_id>  (855) 
63553

>  <target_id>  (855) 
1

>  <reference_id>  (855) 
66

>  <inspiration_ids>  (855) 
[66, 44]

>  <energy_score>  (855) 
97.39420768248027

>  <distance_score>  (855) 
9.19683115229419

>  <path>  (855) 
/opt/xchem-fragalysis-2/maxwin/BulkDock/SCRATCH/511025/C63553-P66/C63553-P66.minimised.mol

>  <scratch_subdir>  (855) 
/opt/xchem-fragalysis-2/maxwin/BulkDock/SCRATCH/511025/C63553-P66

>  <fragmenstein_runtime>  (855) 
16.211023092269897

>  <fragmenstein_outcome>  (855) 
too moved

>  <fragmenstein_mode>  (855) 
expansion

>  <fragmenstein_error>  (855) 


$$$$
C63553-P44
     RDKit          3D

 47 48  0  0  0  0  0  0  0  0999 V2000
   10.1629    2.1084   15.7718 C   0  0  0  0  0  0  0  0  0  0  0  0
    9.8985    0.6434   15.6903 C   0  0  0  0  0  0  0  0  0  0  0  0
   10.7224   -0.2625   14.9526 C   0  0  0  0  0  0  0  0  0  0  0  0
   10.1481   -1.5085   14.8948 C   0  0  0  0  0  0  0  0  0  0  0  0
    8.4887   -1.3484   15.3185 S   0  0  0  0  0  0  0  0  0  0  0  0
    8.8794   -0.0572   16.3604 C   0  0  0  0  0  0  0  0  0  0  0  0
    8.1322    0.4384   17.5715 C   0  0  0  0  0  0  0  0  0  0  0  0
    7.3663   -0.1527   18.7601 N   0  0  0  0  0  0  0  0  0  0  0  0
    6.9885    0.3954   19.9242 C   0  0  0  0  0  0  0  0  0  0  0  0
    7.1816    1.4820   20.3527 O   0  0  0  0  0  0  0  0  0  0  0  0
    6.0239   -0.9626   20.8735 N   0  0  0  0  0  0  0  0  0  0  0  0
    5.0182   -0.8890   22.6319 C   0  0  0  0  0  0  0  0  0  0  0  0
    4.9938   -0.3273   24.4950 C   0  0  0  0  0  0  0  0  0  0  0  0
    5.0152   -1.7039   25.2869 C   0  0  0  0  0  0  0  0  0  0  0  0
    6.0971    0.3712   25.0920 O   0  0  0  0  0  0  0  0  0  0  0  0
    3.7713    0.5271   25.1361 C   0  0  0  0  0  0  0  0  0  0  0  0
    3.6893    2.0146   24.6808 C   0  0  0  0  0  0  0  0  0  0  0  0
    3.1569    3.0260   25.7075 C   0  0  0  0  0  0  0  0  0  0  0  0
    1.9936    2.5054   26.5241 C   0  0  0  0  0  0  0  0  0  0  0  0
    2.3248    1.1800   27.1957 C   0  0  0  0  0  0  0  0  0  0  0  0
    3.6164    0.5120   26.6920 C   0  0  0  0  0  0  0  0  0  0  0  0
    9.8771    2.5228   16.7405 H   0  0  0  0  0  0  0  0  0  0  0  0
   11.2147    2.3366   15.5790 H   0  0  0  0  0  0  0  0  0  0  0  0
    9.5704    2.6237   15.0077 H   0  0  0  0  0  0  0  0  0  0  0  0
   11.6562   -0.0124   14.4650 H   0  0  0  0  0  0  0  0  0  0  0  0
   10.5203   -2.3923   14.3971 H   0  0  0  0  0  0  0  0  0  0  0  0
    7.8018    1.4607   17.3759 H   0  0  0  0  0  0  0  0  0  0  0  0
    8.9965    0.7614   18.1717 H   0  0  0  0  0  0  0  0  0  0  0  0
    6.9602   -1.0442   18.6958 H   0  0  0  0  0  0  0  0  0  0  0  0
    5.9711   -1.8089   20.3004 H   0  0  0  0  0  0  0  0  0  0  0  0
    4.0824   -1.4111   22.6664 H   0  0  0  0  0  0  0  0  0  0  0  0
    5.2033   -1.9491   22.9703 H   0  0  0  0  0  0  0  0  0  0  0  0
    5.0472   -1.5906   26.3721 H   0  0  0  0  0  0  0  0  0  0  0  0
    5.9380   -2.2470   25.0883 H   0  0  0  0  0  0  0  0  0  0  0  0
    4.2097   -2.3734   25.0136 H   0  0  0  0  0  0  0  0  0  0  0  0
    6.1191    0.2147   26.0490 H   0  0  0  0  0  0  0  0  0  0  0  0
    2.9171   -0.0328   24.8227 H   0  0  0  0  0  0  0  0  0  0  0  0
    3.0763    2.1002   23.7795 H   0  0  0  0  0  0  0  0  0  0  0  0
    4.6743    2.3851   24.4062 H   0  0  0  0  0  0  0  0  0  0  0  0
    2.8669    3.9486   25.1907 H   0  0  0  0  0  0  0  0  0  0  0  0
    3.9733    3.3043   26.3870 H   0  0  0  0  0  0  0  0  0  0  0  0
    1.1119    2.3969   25.8839 H   0  0  0  0  0  0  0  0  0  0  0  0
    1.7147    3.2435   27.2856 H   0  0  0  0  0  0  0  0  0  0  0  0
    2.4187    1.3347   28.2780 H   0  0  0  0  0  0  0  0  0  0  0  0
    1.4800    0.4921   27.0706 H   0  0  0  0  0  0  0  0  0  0  0  0
    3.5832   -0.5076   27.0827 H   0  0  0  0  0  0  0  0  0  0  0  0
    4.4780    1.0047   27.1582 H   0  0  0  0  0  0  0  0  0  0  0  0
  1  2  1  0
  2  3  1  0
  3  4  2  0
  4  5  1  0
  5  6  1  0
  6  7  1  0
  7  8  1  0
  8  9  1  0
  9 10  2  0
  9 11  1  0
 11 12  1  0
 12 13  1  0
 13 14  1  0
 13 15  1  0
 13 16  1  0
 16 17  1  0
 17 18  1  0
 18 19  1  0
 19 20  1  0
 20 21  1  0
  6  2  2  0
 21 16  1  0
  1 22  1  0
  1 23  1  0
  1 24  1  0
  3 25  1  0
  4 26  1  0
  7 27  1  0
  7 28  1  0
  8 29  1  0
 11 30  1  0
 12 31  1  0
 12 32  1  0
 14 33  1  0
 14 34  1  0
 14 35  1  0
 15 36  1  0
 16 37  1  0
 17 38  1  0
 17 39  1  0
 18 40  1  0
 18 41  1  0
 19 42  1  0
 19 43  1  0
 20 44  1  0
 20 45  1  0
 21 46  1  0
 21 47  1  0
M  END
>  <Energy>  (856) 
284.32895863229908

>  <compound_id>  (856) 
63553

>  <target_id>  (856) 
1

>  <reference_id>  (856) 
44

>  <inspiration_ids>  (856) 
[66, 44]

>  <energy_score>  (856) 
267.89778079282047

>  <distance_score>  (856) 
5.839889353842915

>  <path>  (856) 
/opt/xchem-fragalysis-2/maxwin/BulkDock/SCRATCH/511025/C63553-P44/C63553-P44.minimised.mol

>  <scratch_subdir>  (856) 
/opt/xchem-fragalysis-2/maxwin/BulkDock/SCRATCH/511025/C63553-P44

>  <fragmenstein_runtime>  (856) 
17.033093452453613

>  <fragmenstein_outcome>  (856) 
too moved

>  <fragmenstein_mode>  (856) 
expansion

>  <fragmenstein_error>  (856) 


$$$$
C63554-P66
     RDKit          3D

 49 50  0  0  0  0  0  0  0  0999 V2000
    5.0682   -3.3586   15.1737 C   0  0  0  0  0  0  0  0  0  0  0  0
    3.9362   -3.3649   16.5744 C   0  0  0  0  0  0  0  0  0  0  0  0
    3.1920   -4.5151   15.1742 C   0  0  0  0  0  0  0  0  0  0  0  0
    3.7931   -1.5720   17.3200 N   0  0  0  0  0  0  0  0  0  0  0  0
    4.7686   -2.0061   18.0310 C   0  0  0  0  0  0  0  0  0  0  0  0
    5.8344   -0.9126   17.9801 C   0  0  0  0  0  0  0  0  0  0  0  0
    7.0490   -0.4802   17.6133 N   0  0  0  0  0  0  0  0  0  0  0  0
    7.8364   -0.0414   18.9054 C   0  0  0  0  0  0  0  0  0  0  0  0
    7.4230   -0.4691   16.3147 C   0  0  0  0  0  0  0  0  0  0  0  0
    7.1288    0.5921   15.8145 O   0  0  0  0  0  0  0  0  0  0  0  0
    8.3351   -1.4382   15.1655 C   0  0  0  0  0  0  0  0  0  0  0  0
    9.1396   -0.2074   14.1815 C   0  0  0  0  0  0  0  0  0  0  0  0
   10.5287   -0.8597   14.4318 C   0  0  0  0  0  0  0  0  0  0  0  0
    9.8663   -1.9892   15.2419 C   0  0  0  0  0  0  0  0  0  0  0  0
    2.0846   -1.1612   17.8465 C   0  0  0  0  0  0  0  0  0  0  0  0
    1.5420   -1.3070   18.9107 O   0  0  0  0  0  0  0  0  0  0  0  0
    1.0422   -0.3221   16.7723 C   0  0  0  0  0  0  0  0  0  0  0  0
   -0.0698    0.4319   17.2946 O   0  0  0  0  0  0  0  0  0  0  0  0
    0.0354    1.7656   17.5638 C   0  0  0  0  0  0  0  0  0  0  0  0
   -1.0815    2.5039   18.0875 C   0  0  0  0  0  0  0  0  0  0  0  0
   -0.7361    3.7571   18.5382 C   0  0  0  0  0  0  0  0  0  0  0  0
    0.8947    4.1122   18.1892 S   0  0  0  0  0  0  0  0  0  0  0  0
    1.1192    2.5930   17.4087 C   0  0  0  0  0  0  0  0  0  0  0  0
    5.8665   -2.6538   14.9548 H   0  0  0  0  0  0  0  0  0  0  0  0
    5.3970   -4.3695   15.3337 H   0  0  0  0  0  0  0  0  0  0  0  0
    4.7038   -3.3206   14.1471 H   0  0  0  0  0  0  0  0  0  0  0  0
    4.1270   -4.0889   17.3606 H   0  0  0  0  0  0  0  0  0  0  0  0
    3.4717   -5.5601   15.3493 H   0  0  0  0  0  0  0  0  0  0  0  0
    2.1781   -4.2585   14.9241 H   0  0  0  0  0  0  0  0  0  0  0  0
    3.5496   -4.4903   14.1308 H   0  0  0  0  0  0  0  0  0  0  0  0
    5.0639   -2.6277   18.9221 H   0  0  0  0  0  0  0  0  0  0  0  0
    3.9092   -1.8833   18.5709 H   0  0  0  0  0  0  0  0  0  0  0  0
    5.8036   -0.1277   18.7046 H   0  0  0  0  0  0  0  0  0  0  0  0
    6.3594   -1.4723   18.6438 H   0  0  0  0  0  0  0  0  0  0  0  0
    8.8396   -0.3527   19.0222 H   0  0  0  0  0  0  0  0  0  0  0  0
    7.6478    1.0210   19.0913 H   0  0  0  0  0  0  0  0  0  0  0  0
    7.4113   -0.4909   19.8064 H   0  0  0  0  0  0  0  0  0  0  0  0
    7.7217   -2.0786   14.5315 H   0  0  0  0  0  0  0  0  0  0  0  0
    9.1997    0.8367   14.5130 H   0  0  0  0  0  0  0  0  0  0  0  0
    8.7181   -0.0470   13.1890 H   0  0  0  0  0  0  0  0  0  0  0  0
   11.2328   -0.2226   14.9812 H   0  0  0  0  0  0  0  0  0  0  0  0
   11.1557   -1.1741   13.5899 H   0  0  0  0  0  0  0  0  0  0  0  0
   10.3687   -2.0751   16.1998 H   0  0  0  0  0  0  0  0  0  0  0  0
   10.0051   -2.9646   14.7667 H   0  0  0  0  0  0  0  0  0  0  0  0
    1.5071    0.3252   16.0519 H   0  0  0  0  0  0  0  0  0  0  0  0
    0.5111   -1.1160   16.2477 H   0  0  0  0  0  0  0  0  0  0  0  0
   -2.0788    2.1047   18.1989 H   0  0  0  0  0  0  0  0  0  0  0  0
   -1.3612    4.4839   19.0372 H   0  0  0  0  0  0  0  0  0  0  0  0
    2.0677    2.4044   16.9324 H   0  0  0  0  0  0  0  0  0  0  0  0
  1  2  1  0
  2  3  1  0
  2  4  1  0
  4  5  1  0
  5  6  1  0
  6  7  1  0
  7  8  1  0
  7  9  1  0
  9 10  2  0
  9 11  1  0
 11 12  1  0
 12 13  1  0
 13 14  1  0
  4 15  1  0
 15 16  2  0
 15 17  1  0
 17 18  1  0
 18 19  1  0
 19 20  1  0
 20 21  2  0
 21 22  1  0
 22 23  1  0
 14 11  1  0
 23 19  2  0
  1 24  1  0
  1 25  1  0
  1 26  1  0
  2 27  1  0
  3 28  1  0
  3 29  1  0
  3 30  1  0
  5 31  1  0
  5 32  1  0
  6 33  1  0
  6 34  1  0
  8 35  1  0
  8 36  1  0
  8 37  1  0
 11 38  1  0
 12 39  1  0
 12 40  1  0
 13 41  1  0
 13 42  1  0
 14 43  1  0
 14 44  1  0
 17 45  1  0
 17 46  1  0
 20 47  1  0
 21 48  1  0
 23 49  1  0
M  END
>  <Energy>  (857) 
640.73141376879039

>  <compound_id>  (857) 
63554

>  <target_id>  (857) 
1

>  <reference_id>  (857) 
66

>  <inspiration_ids>  (857) 
[66, 44]

>  <energy_score>  (857) 
534.1113733591624

>  <distance_score>  (857) 
7.79548693681279

>  <path>  (857) 
/opt/xchem-fragalysis-2/maxwin/BulkDock/SCRATCH/511025/C63554-P66/C63554-P66.minimised.mol

>  <scratch_subdir>  (857) 
/opt/xchem-fragalysis-2/maxwin/BulkDock/SCRATCH/511025/C63554-P66

>  <fragmenstein_runtime>  (857) 
11.356550455093384

>  <fragmenstein_outcome>  (857) 
too moved

>  <fragmenstein_mode>  (857) 
expansion

>  <fragmenstein_error>  (857) 


$$$$
C63554-P44
     RDKit          3D

 49 50  0  0  0  0  0  0  0  0999 V2000
    7.9641    0.6036   18.3111 C   0  0  0  0  0  0  0  0  0  0  0  0
    6.9081    1.7280   18.9547 C   0  0  0  0  0  0  0  0  0  0  0  0
    6.9510    3.1110   18.1610 C   0  0  0  0  0  0  0  0  0  0  0  0
    6.5665    2.0612   20.9162 N   0  0  0  0  0  0  0  0  0  0  0  0
    8.2715    1.4480   20.3058 C   0  0  0  0  0  0  0  0  0  0  0  0
    9.4240    2.8111   19.5724 C   0  0  0  0  0  0  0  0  0  0  0  0
    9.6568    3.3173   18.1173 N   0  0  0  0  0  0  0  0  0  0  0  0
    9.7491    2.5107   16.8698 C   0  0  0  0  0  0  0  0  0  0  0  0
    9.8150    4.7121   17.8821 C   0  0  0  0  0  0  0  0  0  0  0  0
   10.9472    5.2230   17.9196 O   0  0  0  0  0  0  0  0  0  0  0  0
    8.6098    5.5858   17.4602 C   0  0  0  0  0  0  0  0  0  0  0  0
    7.9551    5.2860   16.0628 C   0  0  0  0  0  0  0  0  0  0  0  0
    8.9539    6.2749   15.4477 C   0  0  0  0  0  0  0  0  0  0  0  0
    8.9822    6.9645   16.8225 C   0  0  0  0  0  0  0  0  0  0  0  0
    5.1362    1.3003   22.2107 C   0  0  0  0  0  0  0  0  0  0  0  0
    5.1648    0.2305   22.9657 O   0  0  0  0  0  0  0  0  0  0  0  0
    3.5199    2.3049   22.6034 C   0  0  0  0  0  0  0  0  0  0  0  0
    3.4079    3.6711   23.0375 O   0  0  0  0  0  0  0  0  0  0  0  0
    2.3133    3.8328   23.8397 C   0  0  0  0  0  0  0  0  0  0  0  0
    0.9812    4.0642   23.3942 C   0  0  0  0  0  0  0  0  0  0  0  0
    0.0859    4.0997   24.4440 C   0  0  0  0  0  0  0  0  0  0  0  0
    0.8597    3.8846   25.9579 S   0  0  0  0  0  0  0  0  0  0  0  0
    2.3996    3.7706   25.2134 C   0  0  0  0  0  0  0  0  0  0  0  0
    9.0064    0.8537   18.3220 H   0  0  0  0  0  0  0  0  0  0  0  0
    7.8714   -0.2923   18.9285 H   0  0  0  0  0  0  0  0  0  0  0  0
    7.7502    0.3569   17.2670 H   0  0  0  0  0  0  0  0  0  0  0  0
    6.2766    0.8132   18.8451 H   0  0  0  0  0  0  0  0  0  0  0  0
    6.0579    3.4631   17.6200 H   0  0  0  0  0  0  0  0  0  0  0  0
    7.2172    3.9206   18.8372 H   0  0  0  0  0  0  0  0  0  0  0  0
    7.5714    3.0425   17.3045 H   0  0  0  0  0  0  0  0  0  0  0  0
    9.1208    1.0023   20.9113 H   0  0  0  0  0  0  0  0  0  0  0  0
    8.0493    2.5317   20.1841 H   0  0  0  0  0  0  0  0  0  0  0  0
   10.4087    2.6179   20.0097 H   0  0  0  0  0  0  0  0  0  0  0  0
    9.2498    3.7583   20.1269 H   0  0  0  0  0  0  0  0  0  0  0  0
    8.8146    2.2468   16.3824 H   0  0  0  0  0  0  0  0  0  0  0  0
   10.3077    3.0885   16.1220 H   0  0  0  0  0  0  0  0  0  0  0  0
   10.2819    1.5799   17.0214 H   0  0  0  0  0  0  0  0  0  0  0  0
    7.9068    5.7384   18.2845 H   0  0  0  0  0  0  0  0  0  0  0  0
    6.9090    5.6098   15.9958 H   0  0  0  0  0  0  0  0  0  0  0  0
    8.0288    4.2838   15.6417 H   0  0  0  0  0  0  0  0  0  0  0  0
    8.5767    6.8795   14.6194 H   0  0  0  0  0  0  0  0  0  0  0  0
    9.9080    5.8232   15.1531 H   0  0  0  0  0  0  0  0  0  0  0  0
    8.2035    7.7275   16.9496 H   0  0  0  0  0  0  0  0  0  0  0  0
    9.9393    7.4092   17.1077 H   0  0  0  0  0  0  0  0  0  0  0  0
    2.7219    2.0756   21.8878 H   0  0  0  0  0  0  0  0  0  0  0  0
    3.3128    1.8065   23.5623 H   0  0  0  0  0  0  0  0  0  0  0  0
    0.6959    4.1780   22.3558 H   0  0  0  0  0  0  0  0  0  0  0  0
   -0.9845    4.2527   24.4004 H   0  0  0  0  0  0  0  0  0  0  0  0
    3.2867    3.6211   25.8124 H   0  0  0  0  0  0  0  0  0  0  0  0
  1  2  1  0
  2  3  1  0
  2  4  1  0
  4  5  1  0
  5  6  1  0
  6  7  1  0
  7  8  1  0
  7  9  1  0
  9 10  2  0
  9 11  1  0
 11 12  1  0
 12 13  1  0
 13 14  1  0
  4 15  1  0
 15 16  2  0
 15 17  1  0
 17 18  1  0
 18 19  1  0
 19 20  1  0
 20 21  2  0
 21 22  1  0
 22 23  1  0
 14 11  1  0
 23 19  2  0
  1 24  1  0
  1 25  1  0
  1 26  1  0
  2 27  1  0
  3 28  1  0
  3 29  1  0
  3 30  1  0
  5 31  1  0
  5 32  1  0
  6 33  1  0
  6 34  1  0
  8 35  1  0
  8 36  1  0
  8 37  1  0
 11 38  1  0
 12 39  1  0
 12 40  1  0
 13 41  1  0
 13 42  1  0
 14 43  1  0
 14 44  1  0
 17 45  1  0
 17 46  1  0
 20 47  1  0
 21 48  1  0
 23 49  1  0
M  END
>  <Energy>  (858) 
813.98807537074811

>  <compound_id>  (858) 
63554

>  <target_id>  (858) 
1

>  <reference_id>  (858) 
44

>  <inspiration_ids>  (858) 
[66, 44]

>  <energy_score>  (858) 
707.3680349611353

>  <distance_score>  (858) 
7.325467102052759

>  <path>  (858) 
/opt/xchem-fragalysis-2/maxwin/BulkDock/SCRATCH/511025/C63554-P44/C63554-P44.minimised.mol

>  <scratch_subdir>  (858) 
/opt/xchem-fragalysis-2/maxwin/BulkDock/SCRATCH/511025/C63554-P44

>  <fragmenstein_runtime>  (858) 
12.95086121559143

>  <fragmenstein_outcome>  (858) 
too moved

>  <fragmenstein_mode>  (858) 
expansion

>  <fragmenstein_error>  (858) 


$$$$
C63555-P66
     RDKit          3D

 42 43  0  0  0  0  0  0  0  0999 V2000
    6.7340   -0.8746   27.6810 C   0  0  0  0  0  0  0  0  0  0  0  0
    8.0189   -0.0795   27.3393 C   0  0  0  0  0  0  0  0  0  0  0  0
    7.5886    1.1013   26.5742 N   0  0  0  0  0  0  0  0  0  0  0  0
    9.0062   -0.9908   26.5072 C   0  0  0  0  0  0  0  0  0  0  0  0
   10.1149   -0.3744   25.7604 N   0  0  0  0  0  0  0  0  0  0  0  0
   11.4632   -0.8625   25.4718 C   0  0  0  0  0  0  0  0  0  0  0  0
   12.0305   -1.8546   25.8401 O   0  0  0  0  0  0  0  0  0  0  0  0
   12.2268    0.0824   24.4587 C   0  0  0  0  0  0  0  0  0  0  0  0
   13.2125   -0.6741   23.6101 N   0  0  0  0  0  0  0  0  0  0  0  0
   14.1421    0.2011   22.5034 S   0  0  0  0  0  0  0  0  0  0  0  0
   13.2403    1.0496   21.7504 O   0  0  0  0  0  0  0  0  0  0  0  0
   15.2659    0.7726   23.2133 O   0  0  0  0  0  0  0  0  0  0  0  0
   14.8715   -0.8308   21.2281 C   0  0  0  0  0  0  0  0  0  0  0  0
   15.3079   -0.5147   19.9492 C   0  0  0  0  0  0  0  0  0  0  0  0
   15.6512   -1.6660   19.1832 C   0  0  0  0  0  0  0  0  0  0  0  0
   15.5414   -2.8185   19.9278 C   0  0  0  0  0  0  0  0  0  0  0  0
   15.0739   -2.4968   21.5464 S   0  0  0  0  0  0  0  0  0  0  0  0
    8.7646    0.3976   28.6025 C   0  0  0  0  0  0  0  0  0  0  0  0
    9.1363   -0.6083   29.7338 C   0  0  0  0  0  0  0  0  0  0  0  0
    8.9925    0.5671   30.7229 C   0  0  0  0  0  0  0  0  0  0  0  0
    8.0240    1.2103   29.7085 C   0  0  0  0  0  0  0  0  0  0  0  0
    6.9686   -1.7887   28.2355 H   0  0  0  0  0  0  0  0  0  0  0  0
    6.0312   -0.2910   28.2840 H   0  0  0  0  0  0  0  0  0  0  0  0
    6.2089   -1.1786   26.7675 H   0  0  0  0  0  0  0  0  0  0  0  0
    8.3637    1.7551   26.4827 H   0  0  0  0  0  0  0  0  0  0  0  0
    6.8599    1.5975   27.0872 H   0  0  0  0  0  0  0  0  0  0  0  0
    9.4489   -1.7578   27.1534 H   0  0  0  0  0  0  0  0  0  0  0  0
    8.4291   -1.5281   25.7508 H   0  0  0  0  0  0  0  0  0  0  0  0
    9.9986    0.5425   25.3458 H   0  0  0  0  0  0  0  0  0  0  0  0
   11.4925    0.5573   23.8004 H   0  0  0  0  0  0  0  0  0  0  0  0
   12.7536    0.8396   25.0470 H   0  0  0  0  0  0  0  0  0  0  0  0
   12.7450   -1.4496   23.1097 H   0  0  0  0  0  0  0  0  0  0  0  0
   15.3043    0.5007   19.5705 H   0  0  0  0  0  0  0  0  0  0  0  0
   15.9646   -1.6508   18.1464 H   0  0  0  0  0  0  0  0  0  0  0  0
   15.7391   -3.8344   19.6141 H   0  0  0  0  0  0  0  0  0  0  0  0
    9.6684    0.9470   28.2838 H   0  0  0  0  0  0  0  0  0  0  0  0
   10.1358   -1.0463   29.6666 H   0  0  0  0  0  0  0  0  0  0  0  0
    8.4122   -1.4097   29.9114 H   0  0  0  0  0  0  0  0  0  0  0  0
    9.9180    1.1352   30.8714 H   0  0  0  0  0  0  0  0  0  0  0  0
    8.5655    0.3195   31.6978 H   0  0  0  0  0  0  0  0  0  0  0  0
    6.9785    0.9353   29.8800 H   0  0  0  0  0  0  0  0  0  0  0  0
    8.0906    2.2979   29.6193 H   0  0  0  0  0  0  0  0  0  0  0  0
  1  2  1  0
  2  3  1  0
  2  4  1  0
  4  5  1  0
  5  6  1  0
  6  7  2  0
  6  8  1  0
  8  9  1  0
  9 10  1  0
 10 11  2  0
 10 12  2  0
 10 13  1  0
 13 14  2  0
 14 15  1  0
 15 16  2  0
 16 17  1  0
  2 18  1  0
 18 19  1  0
 19 20  1  0
 20 21  1  0
 17 13  1  0
 21 18  1  0
  1 22  1  0
  1 23  1  0
  1 24  1  0
  3 25  1  0
  3 26  1  0
  4 27  1  0
  4 28  1  0
  5 29  1  0
  8 30  1  0
  8 31  1  0
  9 32  1  0
 14 33  1  0
 15 34  1  0
 16 35  1  0
 18 36  1  0
 19 37  1  0
 19 38  1  0
 20 39  1  0
 20 40  1  0
 21 41  1  0
 21 42  1  0
M  END
>  <Energy>  (859) 
12.308370954205291

>  <compound_id>  (859) 
63555

>  <target_id>  (859) 
1

>  <reference_id>  (859) 
66

>  <inspiration_ids>  (859) 
[66, 44]

>  <energy_score>  (859) 
-56.44788512933076

>  <distance_score>  (859) 
8.301670221544377

>  <path>  (859) 
/opt/xchem-fragalysis-2/maxwin/BulkDock/SCRATCH/511025/C63555-P66/C63555-P66.minimised.mol

>  <scratch_subdir>  (859) 
/opt/xchem-fragalysis-2/maxwin/BulkDock/SCRATCH/511025/C63555-P66

>  <fragmenstein_runtime>  (859) 
59.04148769378662

>  <fragmenstein_outcome>  (859) 
too moved

>  <fragmenstein_mode>  (859) 
expansion

>  <fragmenstein_error>  (859) 


$$$$
C63555-P44
     RDKit          3D

 42 43  0  0  0  0  0  0  0  0999 V2000
    6.4242   -1.5915   28.7014 C   0  0  0  0  0  0  0  0  0  0  0  0
    7.1642   -1.6543   27.3437 C   0  0  0  0  0  0  0  0  0  0  0  0
    6.3860   -2.6018   26.5278 N   0  0  0  0  0  0  0  0  0  0  0  0
    8.6647   -2.1256   27.5717 C   0  0  0  0  0  0  0  0  0  0  0  0
    9.5385   -2.4510   26.4268 N   0  0  0  0  0  0  0  0  0  0  0  0
   10.9010   -2.0244   26.1106 C   0  0  0  0  0  0  0  0  0  0  0  0
   11.6237   -1.2369   26.6632 O   0  0  0  0  0  0  0  0  0  0  0  0
   11.5384   -2.8222   24.9003 C   0  0  0  0  0  0  0  0  0  0  0  0
   12.6640   -2.0462   24.2962 N   0  0  0  0  0  0  0  0  0  0  0  0
   14.0042   -2.7805   23.6067 S   0  0  0  0  0  0  0  0  0  0  0  0
   15.0558   -1.7822   23.6442 O   0  0  0  0  0  0  0  0  0  0  0  0
   14.1849   -4.0679   24.2439 O   0  0  0  0  0  0  0  0  0  0  0  0
   13.8810   -3.0980   21.8494 C   0  0  0  0  0  0  0  0  0  0  0  0
   14.4339   -2.4250   20.7671 C   0  0  0  0  0  0  0  0  0  0  0  0
   14.2620   -3.1194   19.5338 C   0  0  0  0  0  0  0  0  0  0  0  0
   13.5741   -4.2977   19.7117 C   0  0  0  0  0  0  0  0  0  0  0  0
   13.1259   -4.5468   21.3503 S   0  0  0  0  0  0  0  0  0  0  0  0
    7.1787   -0.2786   26.6445 C   0  0  0  0  0  0  0  0  0  0  0  0
    7.6992    0.9815   27.3917 C   0  0  0  0  0  0  0  0  0  0  0  0
    6.2459    1.4487   27.5668 C   0  0  0  0  0  0  0  0  0  0  0  0
    5.8358    0.4841   26.4433 C   0  0  0  0  0  0  0  0  0  0  0  0
    6.9150   -0.8940   29.3883 H   0  0  0  0  0  0  0  0  0  0  0  0
    5.3813   -1.2741   28.5940 H   0  0  0  0  0  0  0  0  0  0  0  0
    6.4188   -2.5727   29.1915 H   0  0  0  0  0  0  0  0  0  0  0  0
    6.8535   -2.7489   25.6233 H   0  0  0  0  0  0  0  0  0  0  0  0
    6.3906   -3.5227   26.9633 H   0  0  0  0  0  0  0  0  0  0  0  0
    9.1981   -1.3728   28.1633 H   0  0  0  0  0  0  0  0  0  0  0  0
    8.6504   -3.0429   28.1735 H   0  0  0  0  0  0  0  0  0  0  0  0
    9.2674   -3.1952   25.7909 H   0  0  0  0  0  0  0  0  0  0  0  0
   11.8981   -3.7686   25.3142 H   0  0  0  0  0  0  0  0  0  0  0  0
   10.7933   -3.0239   24.1350 H   0  0  0  0  0  0  0  0  0  0  0  0
   12.9543   -1.2769   24.9097 H   0  0  0  0  0  0  0  0  0  0  0  0
   14.9831   -1.4977   20.8831 H   0  0  0  0  0  0  0  0  0  0  0  0
   14.6386   -2.7879   18.5741 H   0  0  0  0  0  0  0  0  0  0  0  0
   13.3151   -5.0288   18.9579 H   0  0  0  0  0  0  0  0  0  0  0  0
    7.7190   -0.3932   25.6951 H   0  0  0  0  0  0  0  0  0  0  0  0
    8.2925    1.6461   26.7520 H   0  0  0  0  0  0  0  0  0  0  0  0
    8.2503    0.8176   28.3209 H   0  0  0  0  0  0  0  0  0  0  0  0
    6.0669    2.5080   27.3630 H   0  0  0  0  0  0  0  0  0  0  0  0
    5.8142    1.2052   28.5431 H   0  0  0  0  0  0  0  0  0  0  0  0
    4.9135   -0.0751   26.6216 H   0  0  0  0  0  0  0  0  0  0  0  0
    5.7479    0.9739   25.4692 H   0  0  0  0  0  0  0  0  0  0  0  0
  1  2  1  0
  2  3  1  0
  2  4  1  0
  4  5  1  0
  5  6  1  0
  6  7  2  0
  6  8  1  0
  8  9  1  0
  9 10  1  0
 10 11  2  0
 10 12  2  0
 10 13  1  0
 13 14  2  0
 14 15  1  0
 15 16  2  0
 16 17  1  0
  2 18  1  0
 18 19  1  0
 19 20  1  0
 20 21  1  0
 17 13  1  0
 21 18  1  0
  1 22  1  0
  1 23  1  0
  1 24  1  0
  3 25  1  0
  3 26  1  0
  4 27  1  0
  4 28  1  0
  5 29  1  0
  8 30  1  0
  8 31  1  0
  9 32  1  0
 14 33  1  0
 15 34  1  0
 16 35  1  0
 18 36  1  0
 19 37  1  0
 19 38  1  0
 20 39  1  0
 20 40  1  0
 21 41  1  0
 21 42  1  0
M  END
>  <Energy>  (860) 
13.814132060214531

>  <compound_id>  (860) 
63555

>  <target_id>  (860) 
1

>  <reference_id>  (860) 
44

>  <inspiration_ids>  (860) 
[66, 44]

>  <energy_score>  (860) 
-54.94212402331988

>  <distance_score>  (860) 
8.21825064505311

>  <path>  (860) 
/opt/xchem-fragalysis-2/maxwin/BulkDock/SCRATCH/511025/C63555-P44/C63555-P44.minimised.mol

>  <scratch_subdir>  (860) 
/opt/xchem-fragalysis-2/maxwin/BulkDock/SCRATCH/511025/C63555-P44

>  <fragmenstein_runtime>  (860) 
66.02071332931519

>  <fragmenstein_outcome>  (860) 
too moved

>  <fragmenstein_mode>  (860) 
expansion

>  <fragmenstein_error>  (860) 


$$$$
C63556-P66
     RDKit          3D

 44 46  0  0  0  0  0  0  0  0999 V2000
    7.6120    3.8678   16.8822 C   0  0  0  0  0  0  0  0  0  0  0  0
    7.9136    5.1283   16.2367 N   0  0  0  0  0  0  0  0  0  0  0  0
    7.6313    6.3579   16.9402 C   0  0  0  0  0  0  0  0  0  0  0  0
    8.4595    5.1613   14.9753 C   0  0  0  0  0  0  0  0  0  0  0  0
    7.7825    5.1942   13.9525 O   0  0  0  0  0  0  0  0  0  0  0  0
    9.9716    5.1232   14.9437 C   0  0  0  0  0  0  0  0  0  0  0  0
   10.4611    3.7544   14.4827 C   0  0  0  0  0  0  0  0  0  0  0  0
   11.9839    3.7227   14.3563 C   0  0  0  0  0  0  0  0  0  0  0  0
   12.4823    2.3435   14.0928 C   0  0  0  0  0  0  0  0  0  0  0  0
   12.1566    1.2655   14.7761 N   0  0  0  0  0  0  0  0  0  0  0  0
   12.9597    0.2919   14.2468 C   0  0  0  0  0  0  0  0  0  0  0  0
   12.9513   -1.0400   14.8379 C   0  0  0  0  0  0  0  0  0  0  0  0
   14.1065   -1.6405   15.4043 C   0  0  0  0  0  0  0  0  0  0  0  0
   13.8127   -2.8212   16.0518 C   0  0  0  0  0  0  0  0  0  0  0  0
   12.1642   -3.2232   15.9290 S   0  0  0  0  0  0  0  0  0  0  0  0
   11.8371   -1.8295   14.9999 C   0  0  0  0  0  0  0  0  0  0  0  0
   13.7871    0.7063   13.2844 N   0  0  0  0  0  0  0  0  0  0  0  0
   13.4103    1.9899   13.1409 N   0  0  0  0  0  0  0  0  0  0  0  0
   14.0057    2.9050   12.1513 C   0  0  0  0  0  0  0  0  0  0  0  0
   14.8302    2.2110   11.0344 C   0  0  0  0  0  0  0  0  0  0  0  0
   14.1941    3.2138   10.0499 C   0  0  0  0  0  0  0  0  0  0  0  0
   13.0094    3.3103   11.0329 C   0  0  0  0  0  0  0  0  0  0  0  0
    6.5394    3.8289   17.0901 H   0  0  0  0  0  0  0  0  0  0  0  0
    8.1714    3.8080   17.8191 H   0  0  0  0  0  0  0  0  0  0  0  0
    7.8840    3.0297   16.2355 H   0  0  0  0  0  0  0  0  0  0  0  0
    8.2050    6.3748   17.8710 H   0  0  0  0  0  0  0  0  0  0  0  0
    7.9085    7.2215   16.3286 H   0  0  0  0  0  0  0  0  0  0  0  0
    6.5619    6.4021   17.1646 H   0  0  0  0  0  0  0  0  0  0  0  0
   10.3737    5.3575   15.9362 H   0  0  0  0  0  0  0  0  0  0  0  0
   10.3111    5.9127   14.2635 H   0  0  0  0  0  0  0  0  0  0  0  0
   10.0081    3.4960   13.5173 H   0  0  0  0  0  0  0  0  0  0  0  0
   10.1199    2.9922   15.1942 H   0  0  0  0  0  0  0  0  0  0  0  0
   12.4378    4.0692   15.2932 H   0  0  0  0  0  0  0  0  0  0  0  0
   12.2978    4.4245   13.5780 H   0  0  0  0  0  0  0  0  0  0  0  0
   15.1001   -1.2098   15.3798 H   0  0  0  0  0  0  0  0  0  0  0  0
   14.4922   -3.4744   16.5828 H   0  0  0  0  0  0  0  0  0  0  0  0
   10.8302   -1.6222   14.6636 H   0  0  0  0  0  0  0  0  0  0  0  0
   14.5303    3.7497   12.6150 H   0  0  0  0  0  0  0  0  0  0  0  0
   14.5637    1.1717   10.8092 H   0  0  0  0  0  0  0  0  0  0  0  0
   15.9165    2.2814   11.1365 H   0  0  0  0  0  0  0  0  0  0  0  0
   13.9583    2.8228    9.0571 H   0  0  0  0  0  0  0  0  0  0  0  0
   14.7579    4.1477    9.9438 H   0  0  0  0  0  0  0  0  0  0  0  0
   12.2122    2.5845   10.8317 H   0  0  0  0  0  0  0  0  0  0  0  0
   12.5646    4.3047   11.1257 H   0  0  0  0  0  0  0  0  0  0  0  0
  1  2  1  0
  2  3  1  0
  2  4  1  0
  4  5  2  0
  4  6  1  0
  6  7  1  0
  7  8  1  0
  8  9  1  0
  9 10  2  0
 10 11  1  0
 11 12  1  0
 12 13  1  0
 13 14  2  0
 14 15  1  0
 15 16  1  0
 11 17  2  0
 17 18  1  0
 18 19  1  0
 19 20  1  0
 20 21  1  0
 21 22  1  0
 18  9  1  0
 22 19  1  0
 16 12  2  0
  1 23  1  0
  1 24  1  0
  1 25  1  0
  3 26  1  0
  3 27  1  0
  3 28  1  0
  6 29  1  0
  6 30  1  0
  7 31  1  0
  7 32  1  0
  8 33  1  0
  8 34  1  0
 13 35  1  0
 14 36  1  0
 16 37  1  0
 19 38  1  0
 20 39  1  0
 20 40  1  0
 21 41  1  0
 21 42  1  0
 22 43  1  0
 22 44  1  0
M  END
>  <Energy>  (861) 
35.675635609879791

>  <compound_id>  (861) 
63556

>  <target_id>  (861) 
1

>  <reference_id>  (861) 
66

>  <inspiration_ids>  (861) 
[66, 44]

>  <energy_score>  (861) 
-23.419539216838075

>  <distance_score>  (861) 
11.865272011162435

>  <path>  (861) 
/opt/xchem-fragalysis-2/maxwin/BulkDock/SCRATCH/511025/C63556-P66/C63556-P66.minimised.mol

>  <scratch_subdir>  (861) 
/opt/xchem-fragalysis-2/maxwin/BulkDock/SCRATCH/511025/C63556-P66

>  <fragmenstein_runtime>  (861) 
31.775833129882812

>  <fragmenstein_outcome>  (861) 
too moved

>  <fragmenstein_mode>  (861) 
expansion

>  <fragmenstein_error>  (861) 


$$$$
C63556-P44
     RDKit          3D

 44 46  0  0  0  0  0  0  0  0999 V2000
    4.9212    0.1647   25.8187 C   0  0  0  0  0  0  0  0  0  0  0  0
    4.7427    1.5774   25.5787 N   0  0  0  0  0  0  0  0  0  0  0  0
    5.6815    2.5115   26.1572 C   0  0  0  0  0  0  0  0  0  0  0  0
    3.7017    2.0381   24.8167 C   0  0  0  0  0  0  0  0  0  0  0  0
    2.6234    2.3172   25.3449 O   0  0  0  0  0  0  0  0  0  0  0  0
    3.9295    2.3082   23.3368 C   0  0  0  0  0  0  0  0  0  0  0  0
    4.7526    1.1820   22.3575 C   0  0  0  0  0  0  0  0  0  0  0  0
    6.2099    2.0830   21.2879 C   0  0  0  0  0  0  0  0  0  0  0  0
    7.4940    2.0519   19.8657 C   0  0  0  0  0  0  0  0  0  0  0  0
    7.8788    0.9867   19.1214 N   0  0  0  0  0  0  0  0  0  0  0  0
    8.4863    1.5445   17.9912 C   0  0  0  0  0  0  0  0  0  0  0  0
    8.9764    0.8536   16.7859 C   0  0  0  0  0  0  0  0  0  0  0  0
    8.2800   -0.1520   16.0810 C   0  0  0  0  0  0  0  0  0  0  0  0
    9.0560   -0.7594   15.1236 C   0  0  0  0  0  0  0  0  0  0  0  0
   10.5093    0.0955   14.8587 S   0  0  0  0  0  0  0  0  0  0  0  0
   10.0627    1.2566   16.0305 C   0  0  0  0  0  0  0  0  0  0  0  0
    8.6859    2.8409   18.0687 N   0  0  0  0  0  0  0  0  0  0  0  0
    7.9088    3.2199   19.0822 N   0  0  0  0  0  0  0  0  0  0  0  0
    7.8859    4.7166   19.2436 C   0  0  0  0  0  0  0  0  0  0  0  0
    8.1140    5.4936   17.8960 C   0  0  0  0  0  0  0  0  0  0  0  0
    7.2412    6.6082   18.5056 C   0  0  0  0  0  0  0  0  0  0  0  0
    6.5309    5.4770   19.2795 C   0  0  0  0  0  0  0  0  0  0  0  0
    4.7140   -0.0341   26.8743 H   0  0  0  0  0  0  0  0  0  0  0  0
    5.9535   -0.1133   25.6020 H   0  0  0  0  0  0  0  0  0  0  0  0
    4.2339   -0.4238   25.2071 H   0  0  0  0  0  0  0  0  0  0  0  0
    6.6946    2.2598   25.8351 H   0  0  0  0  0  0  0  0  0  0  0  0
    5.4460    3.5344   25.8483 H   0  0  0  0  0  0  0  0  0  0  0  0
    5.6187    2.4419   27.2469 H   0  0  0  0  0  0  0  0  0  0  0  0
    4.4187    3.2916   23.3178 H   0  0  0  0  0  0  0  0  0  0  0  0
    2.9405    2.4615   22.8894 H   0  0  0  0  0  0  0  0  0  0  0  0
    4.1905    0.8331   21.4971 H   0  0  0  0  0  0  0  0  0  0  0  0
    5.0458    0.3818   23.0736 H   0  0  0  0  0  0  0  0  0  0  0  0
    5.9024    2.7614   22.1411 H   0  0  0  0  0  0  0  0  0  0  0  0
    5.9925    3.0783   20.7446 H   0  0  0  0  0  0  0  0  0  0  0  0
    7.2601   -0.4488   16.2791 H   0  0  0  0  0  0  0  0  0  0  0  0
    8.7906   -1.6151   14.5219 H   0  0  0  0  0  0  0  0  0  0  0  0
   10.6646    2.1417   16.1688 H   0  0  0  0  0  0  0  0  0  0  0  0
    8.6585    5.0561   19.9496 H   0  0  0  0  0  0  0  0  0  0  0  0
    7.6675    5.0433   17.0000 H   0  0  0  0  0  0  0  0  0  0  0  0
    9.1469    5.7772   17.6755 H   0  0  0  0  0  0  0  0  0  0  0  0
    6.6215    7.1695   17.8021 H   0  0  0  0  0  0  0  0  0  0  0  0
    7.7902    7.3119   19.1420 H   0  0  0  0  0  0  0  0  0  0  0  0
    5.7109    5.0747   18.6810 H   0  0  0  0  0  0  0  0  0  0  0  0
    6.1495    5.7673   20.2608 H   0  0  0  0  0  0  0  0  0  0  0  0
  1  2  1  0
  2  3  1  0
  2  4  1  0
  4  5  2  0
  4  6  1  0
  6  7  1  0
  7  8  1  0
  8  9  1  0
  9 10  2  0
 10 11  1  0
 11 12  1  0
 12 13  1  0
 13 14  2  0
 14 15  1  0
 15 16  1  0
 11 17  2  0
 17 18  1  0
 18 19  1  0
 19 20  1  0
 20 21  1  0
 21 22  1  0
 18  9  1  0
 22 19  1  0
 16 12  2  0
  1 23  1  0
  1 24  1  0
  1 25  1  0
  3 26  1  0
  3 27  1  0
  3 28  1  0
  6 29  1  0
  6 30  1  0
  7 31  1  0
  7 32  1  0
  8 33  1  0
  8 34  1  0
 13 35  1  0
 14 36  1  0
 16 37  1  0
 19 38  1  0
 20 39  1  0
 20 40  1  0
 21 41  1  0
 21 42  1  0
 22 43  1  0
 22 44  1  0
M  END
>  <Energy>  (862) 
277.63804269948628

>  <compound_id>  (862) 
63556

>  <target_id>  (862) 
1

>  <reference_id>  (862) 
44

>  <inspiration_ids>  (862) 
[66, 44]

>  <energy_score>  (862) 
216.5265617981388

>  <distance_score>  (862) 
5.496801079368331

>  <path>  (862) 
/opt/xchem-fragalysis-2/maxwin/BulkDock/SCRATCH/511025/C63556-P44/C63556-P44.minimised.mol

>  <scratch_subdir>  (862) 
/opt/xchem-fragalysis-2/maxwin/BulkDock/SCRATCH/511025/C63556-P44

>  <fragmenstein_runtime>  (862) 
22.4985830783844

>  <fragmenstein_outcome>  (862) 
too moved

>  <fragmenstein_mode>  (862) 
expansion

>  <fragmenstein_error>  (862) 


$$$$
C63557-P66
     RDKit          3D

 45 47  0  0  0  0  0  0  0  0999 V2000
   12.1081   -4.6022   31.1231 C   0  0  0  0  0  0  0  0  0  0  0  0
   10.7925   -4.1811   30.5603 N   0  0  0  0  0  0  0  0  0  0  0  0
   10.3446   -4.4682   31.9691 C   0  0  0  0  0  0  0  0  0  0  0  0
    9.9268   -4.8301   29.6255 C   0  0  0  0  0  0  0  0  0  0  0  0
    9.9957   -5.9197   29.1239 O   0  0  0  0  0  0  0  0  0  0  0  0
    8.7891   -3.8680   29.2798 C   0  0  0  0  0  0  0  0  0  0  0  0
    8.1791   -4.1602   27.9086 C   0  0  0  0  0  0  0  0  0  0  0  0
    7.0316   -3.1957   27.6033 C   0  0  0  0  0  0  0  0  0  0  0  0
    6.4345   -3.4175   26.2515 C   0  0  0  0  0  0  0  0  0  0  0  0
    6.9757   -4.0950   25.2624 N   0  0  0  0  0  0  0  0  0  0  0  0
    6.0590   -4.0096   24.2486 C   0  0  0  0  0  0  0  0  0  0  0  0
    6.3854   -4.6422   22.9512 C   0  0  0  0  0  0  0  0  0  0  0  0
    5.4503   -4.8049   21.8893 C   0  0  0  0  0  0  0  0  0  0  0  0
    5.9895   -5.4506   20.7961 C   0  0  0  0  0  0  0  0  0  0  0  0
    7.6436   -5.8184   21.0290 S   0  0  0  0  0  0  0  0  0  0  0  0
    7.6159   -5.1752   22.6127 C   0  0  0  0  0  0  0  0  0  0  0  0
    4.9429   -3.3297   24.5741 N   0  0  0  0  0  0  0  0  0  0  0  0
    5.2194   -2.9017   25.8349 N   0  0  0  0  0  0  0  0  0  0  0  0
    4.3353   -2.0669   26.6347 C   0  0  0  0  0  0  0  0  0  0  0  0
    3.6580   -0.8769   25.9663 C   0  0  0  0  0  0  0  0  0  0  0  0
    2.8451   -0.2048   27.0685 C   0  0  0  0  0  0  0  0  0  0  0  0
    2.1210   -1.5660   28.0267 S   0  0  0  0  0  0  0  0  0  0  0  0
    3.2123   -2.8428   27.3153 C   0  0  0  0  0  0  0  0  0  0  0  0
   12.1758   -5.6625   31.4102 H   0  0  0  0  0  0  0  0  0  0  0  0
   12.5481   -3.8980   31.8436 H   0  0  0  0  0  0  0  0  0  0  0  0
   12.7816   -4.5452   30.2553 H   0  0  0  0  0  0  0  0  0  0  0  0
   10.3397   -5.5383   32.2305 H   0  0  0  0  0  0  0  0  0  0  0  0
    9.2790   -4.1979   32.0016 H   0  0  0  0  0  0  0  0  0  0  0  0
   10.7882   -3.8202   32.7403 H   0  0  0  0  0  0  0  0  0  0  0  0
    8.0193   -3.9662   30.0536 H   0  0  0  0  0  0  0  0  0  0  0  0
    9.1641   -2.8377   29.3003 H   0  0  0  0  0  0  0  0  0  0  0  0
    8.9595   -4.0795   27.1409 H   0  0  0  0  0  0  0  0  0  0  0  0
    7.8124   -5.1941   27.8717 H   0  0  0  0  0  0  0  0  0  0  0  0
    7.3944   -2.1623   27.6597 H   0  0  0  0  0  0  0  0  0  0  0  0
    6.2589   -3.3184   28.3714 H   0  0  0  0  0  0  0  0  0  0  0  0
    4.4167   -4.4939   21.9552 H   0  0  0  0  0  0  0  0  0  0  0  0
    5.4844   -5.7179   19.8780 H   0  0  0  0  0  0  0  0  0  0  0  0
    8.5041   -5.2165   23.2299 H   0  0  0  0  0  0  0  0  0  0  0  0
    4.9802   -1.6436   27.4178 H   0  0  0  0  0  0  0  0  0  0  0  0
    3.0228   -1.2181   25.1484 H   0  0  0  0  0  0  0  0  0  0  0  0
    4.3830   -0.1749   25.5517 H   0  0  0  0  0  0  0  0  0  0  0  0
    2.0811    0.4774   26.6958 H   0  0  0  0  0  0  0  0  0  0  0  0
    3.5028    0.3665   27.7324 H   0  0  0  0  0  0  0  0  0  0  0  0
    3.5912   -3.4964   28.1069 H   0  0  0  0  0  0  0  0  0  0  0  0
    2.6513   -3.4586   26.6096 H   0  0  0  0  0  0  0  0  0  0  0  0
  1  2  1  0
  2  3  1  0
  2  4  1  0
  4  5  2  0
  4  6  1  0
  6  7  1  0
  7  8  1  0
  8  9  1  0
  9 10  2  0
 10 11  1  0
 11 12  1  0
 12 13  1  0
 13 14  2  0
 14 15  1  0
 15 16  1  0
 11 17  2  0
 17 18  1  0
 18 19  1  0
 19 20  1  0
 20 21  1  0
 21 22  1  0
 22 23  1  0
 18  9  1  0
 23 19  1  0
 16 12  2  0
  1 24  1  0
  1 25  1  0
  1 26  1  0
  3 27  1  0
  3 28  1  0
  3 29  1  0
  6 30  1  0
  6 31  1  0
  7 32  1  0
  7 33  1  0
  8 34  1  0
  8 35  1  0
 13 36  1  0
 14 37  1  0
 16 38  1  0
 19 39  1  0
 20 40  1  0
 20 41  1  0
 21 42  1  0
 21 43  1  0
 23 44  1  0
 23 45  1  0
M  END
>  <Energy>  (863) 
74.486441932372301

>  <compound_id>  (863) 
63557

>  <target_id>  (863) 
1

>  <reference_id>  (863) 
66

>  <inspiration_ids>  (863) 
[66, 44]

>  <energy_score>  (863) 
19.116131949851933

>  <distance_score>  (863) 
8.61309249483798

>  <path>  (863) 
/opt/xchem-fragalysis-2/maxwin/BulkDock/SCRATCH/511025/C63557-P66/C63557-P66.minimised.mol

>  <scratch_subdir>  (863) 
/opt/xchem-fragalysis-2/maxwin/BulkDock/SCRATCH/511025/C63557-P66

>  <fragmenstein_runtime>  (863) 
10.734100103378296

>  <fragmenstein_outcome>  (863) 
too moved

>  <fragmenstein_mode>  (863) 
expansion

>  <fragmenstein_error>  (863) 


$$$$
C63557-P44
     RDKit          3D

 45 47  0  0  0  0  0  0  0  0999 V2000
   -1.2936    4.6788   15.8501 C   0  0  0  0  0  0  0  0  0  0  0  0
   -0.5068    5.7777   16.4804 N   0  0  0  0  0  0  0  0  0  0  0  0
   -1.8254    6.0347   17.1624 C   0  0  0  0  0  0  0  0  0  0  0  0
    0.0073    6.9900   15.9293 C   0  0  0  0  0  0  0  0  0  0  0  0
   -0.1388    7.4772   14.8396 O   0  0  0  0  0  0  0  0  0  0  0  0
    0.9290    7.6599   16.9444 C   0  0  0  0  0  0  0  0  0  0  0  0
    2.1819    6.8297   17.2180 C   0  0  0  0  0  0  0  0  0  0  0  0
    3.1058    7.5462   18.2032 C   0  0  0  0  0  0  0  0  0  0  0  0
    4.2686    6.6933   18.5818 C   0  0  0  0  0  0  0  0  0  0  0  0
    5.2829    6.3959   17.7908 N   0  0  0  0  0  0  0  0  0  0  0  0
    6.0945    5.5943   18.5536 C   0  0  0  0  0  0  0  0  0  0  0  0
    7.2184    4.8570   17.9011 C   0  0  0  0  0  0  0  0  0  0  0  0
    7.8595    3.6945   18.4376 C   0  0  0  0  0  0  0  0  0  0  0  0
    8.7716    3.1251   17.5748 C   0  0  0  0  0  0  0  0  0  0  0  0
    8.9242    4.0189   16.1324 S   0  0  0  0  0  0  0  0  0  0  0  0
    7.7220    5.1338   16.6428 C   0  0  0  0  0  0  0  0  0  0  0  0
    5.6823    5.4995   19.8341 N   0  0  0  0  0  0  0  0  0  0  0  0
    4.4454    6.0734   19.8052 N   0  0  0  0  0  0  0  0  0  0  0  0
    3.5269    6.0790   20.9522 C   0  0  0  0  0  0  0  0  0  0  0  0
    2.2381    5.2626   20.7374 C   0  0  0  0  0  0  0  0  0  0  0  0
    1.4574    5.2317   22.0464 C   0  0  0  0  0  0  0  0  0  0  0  0
    2.6804    5.2603   23.3773 S   0  0  0  0  0  0  0  0  0  0  0  0
    4.1025    5.5910   22.2828 C   0  0  0  0  0  0  0  0  0  0  0  0
   -2.0908    5.0084   15.1667 H   0  0  0  0  0  0  0  0  0  0  0  0
   -1.5745    3.8621   16.5299 H   0  0  0  0  0  0  0  0  0  0  0  0
   -0.5689    4.2128   15.1663 H   0  0  0  0  0  0  0  0  0  0  0  0
   -1.6466    6.8722   17.8522 H   0  0  0  0  0  0  0  0  0  0  0  0
   -2.1652    5.2302   17.8312 H   0  0  0  0  0  0  0  0  0  0  0  0
   -2.6101    6.4259   16.4955 H   0  0  0  0  0  0  0  0  0  0  0  0
    1.2096    8.6431   16.5472 H   0  0  0  0  0  0  0  0  0  0  0  0
    0.3767    7.8429   17.8723 H   0  0  0  0  0  0  0  0  0  0  0  0
    2.7123    6.6393   16.2758 H   0  0  0  0  0  0  0  0  0  0  0  0
    1.9044    5.8445   17.6117 H   0  0  0  0  0  0  0  0  0  0  0  0
    2.5416    7.8597   19.0871 H   0  0  0  0  0  0  0  0  0  0  0  0
    3.4860    8.4660   17.7417 H   0  0  0  0  0  0  0  0  0  0  0  0
    7.6178    3.2401   19.3840 H   0  0  0  0  0  0  0  0  0  0  0  0
    9.3490    2.2269   17.7272 H   0  0  0  0  0  0  0  0  0  0  0  0
    7.4159    5.9323   15.9811 H   0  0  0  0  0  0  0  0  0  0  0  0
    3.2550    7.1359   21.0841 H   0  0  0  0  0  0  0  0  0  0  0  0
    2.4603    4.2455   20.4056 H   0  0  0  0  0  0  0  0  0  0  0  0
    1.6132    5.6993   19.9520 H   0  0  0  0  0  0  0  0  0  0  0  0
    0.8257    6.1208   22.1378 H   0  0  0  0  0  0  0  0  0  0  0  0
    0.8198    4.3458   22.1155 H   0  0  0  0  0  0  0  0  0  0  0  0
    4.7671    6.3341   22.7338 H   0  0  0  0  0  0  0  0  0  0  0  0
    4.6518    4.6604   22.1871 H   0  0  0  0  0  0  0  0  0  0  0  0
  1  2  1  0
  2  3  1  0
  2  4  1  0
  4  5  2  0
  4  6  1  0
  6  7  1  0
  7  8  1  0
  8  9  1  0
  9 10  2  0
 10 11  1  0
 11 12  1  0
 12 13  1  0
 13 14  2  0
 14 15  1  0
 15 16  1  0
 11 17  2  0
 17 18  1  0
 18 19  1  0
 19 20  1  0
 20 21  1  0
 21 22  1  0
 22 23  1  0
 18  9  1  0
 23 19  1  0
 16 12  2  0
  1 24  1  0
  1 25  1  0
  1 26  1  0
  3 27  1  0
  3 28  1  0
  3 29  1  0
  6 30  1  0
  6 31  1  0
  7 32  1  0
  7 33  1  0
  8 34  1  0
  8 35  1  0
 13 36  1  0
 14 37  1  0
 16 38  1  0
 19 39  1  0
 20 40  1  0
 20 41  1  0
 21 42  1  0
 21 43  1  0
 23 44  1  0
 23 45  1  0
M  END
>  <Energy>  (864) 
76.986245958607086

>  <compound_id>  (864) 
63557

>  <target_id>  (864) 
1

>  <reference_id>  (864) 
44

>  <inspiration_ids>  (864) 
[66, 44]

>  <energy_score>  (864) 
21.61593597608578

>  <distance_score>  (864) 
8.377711812437019

>  <path>  (864) 
/opt/xchem-fragalysis-2/maxwin/BulkDock/SCRATCH/511025/C63557-P44/C63557-P44.minimised.mol

>  <scratch_subdir>  (864) 
/opt/xchem-fragalysis-2/maxwin/BulkDock/SCRATCH/511025/C63557-P44

>  <fragmenstein_runtime>  (864) 
11.25536322593689

>  <fragmenstein_outcome>  (864) 
too moved

>  <fragmenstein_mode>  (864) 
expansion

>  <fragmenstein_error>  (864) 


$$$$
C63558-P66
     RDKit          3D

 44 46  0  0  0  0  0  0  0  0999 V2000
   20.4572    4.9273   18.9259 C   0  0  0  0  0  0  0  0  0  0  0  0
   19.0028    5.1378   19.2644 N   0  0  0  0  0  0  0  0  0  0  0  0
   19.3559    6.5245   18.7760 C   0  0  0  0  0  0  0  0  0  0  0  0
   18.0689    7.3306   19.0559 C   0  0  0  0  0  0  0  0  0  0  0  0
   16.8498    7.1477   18.1076 C   0  0  0  0  0  0  0  0  0  0  0  0
   16.5967    8.6608   18.2602 C   0  0  0  0  0  0  0  0  0  0  0  0
   18.0997    8.8067   18.5706 C   0  0  0  0  0  0  0  0  0  0  0  0
   18.1307    4.0603   18.6389 C   0  0  0  0  0  0  0  0  0  0  0  0
   17.5942    4.0280   17.5925 O   0  0  0  0  0  0  0  0  0  0  0  0
   17.9874    2.9679   19.6974 C   0  0  0  0  0  0  0  0  0  0  0  0
   17.0159    1.8637   19.2819 C   0  0  0  0  0  0  0  0  0  0  0  0
   17.5755    0.9771   18.1695 C   0  0  0  0  0  0  0  0  0  0  0  0
   16.6541   -0.0817   17.8163 N   0  0  0  0  0  0  0  0  0  0  0  0
   15.6842   -0.0620   16.8607 C   0  0  0  0  0  0  0  0  0  0  0  0
   15.0977   -1.3000   16.9701 C   0  0  0  0  0  0  0  0  0  0  0  0
   13.8870   -1.8147   16.1468 C   0  0  0  0  0  0  0  0  0  0  0  0
   13.2989   -1.1341   15.1018 C   0  0  0  0  0  0  0  0  0  0  0  0
   12.1236   -1.7913   14.6361 C   0  0  0  0  0  0  0  0  0  0  0  0
   11.8735   -2.9536   15.3290 C   0  0  0  0  0  0  0  0  0  0  0  0
   13.0914   -3.2840   16.4863 S   0  0  0  0  0  0  0  0  0  0  0  0
   15.7168   -2.0100   17.9613 N   0  0  0  0  0  0  0  0  0  0  0  0
   16.6801   -1.2528   18.4724 N   0  0  0  0  0  0  0  0  0  0  0  0
   20.6977    4.9745   17.8517 H   0  0  0  0  0  0  0  0  0  0  0  0
   20.6496    3.8700   19.1603 H   0  0  0  0  0  0  0  0  0  0  0  0
   21.1690    5.4493   19.5832 H   0  0  0  0  0  0  0  0  0  0  0  0
   19.5238    6.5713   17.6882 H   0  0  0  0  0  0  0  0  0  0  0  0
   20.1333    7.0424   19.3602 H   0  0  0  0  0  0  0  0  0  0  0  0
   17.7850    7.2689   20.1180 H   0  0  0  0  0  0  0  0  0  0  0  0
   16.0521    6.4985   18.4779 H   0  0  0  0  0  0  0  0  0  0  0  0
   17.1085    6.8500   17.0849 H   0  0  0  0  0  0  0  0  0  0  0  0
   15.9448    8.9166   19.1034 H   0  0  0  0  0  0  0  0  0  0  0  0
   16.2425    9.1774   17.3649 H   0  0  0  0  0  0  0  0  0  0  0  0
   18.3557    9.5503   19.3298 H   0  0  0  0  0  0  0  0  0  0  0  0
   18.7152    8.9813   17.6802 H   0  0  0  0  0  0  0  0  0  0  0  0
   18.9696    2.5374   19.9172 H   0  0  0  0  0  0  0  0  0  0  0  0
   17.6094    3.4393   20.6127 H   0  0  0  0  0  0  0  0  0  0  0  0
   16.7973    1.2436   20.1607 H   0  0  0  0  0  0  0  0  0  0  0  0
   16.0599    2.3010   18.9667 H   0  0  0  0  0  0  0  0  0  0  0  0
   18.5155    0.5058   18.4794 H   0  0  0  0  0  0  0  0  0  0  0  0
   17.7769    1.5426   17.2545 H   0  0  0  0  0  0  0  0  0  0  0  0
   15.4998    0.7953   16.2319 H   0  0  0  0  0  0  0  0  0  0  0  0
   13.6584   -0.1919   14.7095 H   0  0  0  0  0  0  0  0  0  0  0  0
   11.4825   -1.4187   13.8480 H   0  0  0  0  0  0  0  0  0  0  0  0
   11.0496   -3.6394   15.1914 H   0  0  0  0  0  0  0  0  0  0  0  0
  1  2  1  0
  2  3  1  0
  3  4  1  0
  4  5  1  0
  5  6  1  0
  6  7  1  0
  2  8  1  0
  8  9  2  0
  8 10  1  0
 10 11  1  0
 11 12  1  0
 12 13  1  0
 13 14  1  0
 14 15  2  0
 15 16  1  0
 16 17  2  0
 17 18  1  0
 18 19  2  0
 19 20  1  0
 15 21  1  0
 21 22  2  0
  7  4  1  0
 22 13  1  0
 20 16  1  0
  1 23  1  0
  1 24  1  0
  1 25  1  0
  3 26  1  0
  3 27  1  0
  4 28  1  0
  5 29  1  0
  5 30  1  0
  6 31  1  0
  6 32  1  0
  7 33  1  0
  7 34  1  0
 10 35  1  0
 10 36  1  0
 11 37  1  0
 11 38  1  0
 12 39  1  0
 12 40  1  0
 14 41  1  0
 17 42  1  0
 18 43  1  0
 19 44  1  0
M  END
>  <Energy>  (865) 
85.019179283101195

>  <compound_id>  (865) 
63558

>  <target_id>  (865) 
1

>  <reference_id>  (865) 
66

>  <inspiration_ids>  (865) 
[66, 44]

>  <energy_score>  (865) 
23.615121048589344

>  <distance_score>  (865) 
13.479180125525904

>  <path>  (865) 
/opt/xchem-fragalysis-2/maxwin/BulkDock/SCRATCH/511025/C63558-P66/C63558-P66.minimised.mol

>  <scratch_subdir>  (865) 
/opt/xchem-fragalysis-2/maxwin/BulkDock/SCRATCH/511025/C63558-P66

>  <fragmenstein_runtime>  (865) 
38.136798620224

>  <fragmenstein_outcome>  (865) 
too moved

>  <fragmenstein_mode>  (865) 
expansion

>  <fragmenstein_error>  (865) 


$$$$
C63558-P44
     RDKit          3D

 44 46  0  0  0  0  0  0  0  0999 V2000
   15.6713    4.3655   21.3902 C   0  0  0  0  0  0  0  0  0  0  0  0
   14.9399    3.4372   20.4618 N   0  0  0  0  0  0  0  0  0  0  0  0
   13.7760    4.2599   20.9718 C   0  0  0  0  0  0  0  0  0  0  0  0
   13.0697    3.4823   22.0983 C   0  0  0  0  0  0  0  0  0  0  0  0
   11.5179    3.4120   21.9976 C   0  0  0  0  0  0  0  0  0  0  0  0
   11.4550    4.6589   22.8960 C   0  0  0  0  0  0  0  0  0  0  0  0
   12.8443    4.2617   23.4273 C   0  0  0  0  0  0  0  0  0  0  0  0
   15.5981    3.3974   19.0933 C   0  0  0  0  0  0  0  0  0  0  0  0
   15.4058    4.0555   18.1361 O   0  0  0  0  0  0  0  0  0  0  0  0
   16.5544    2.2068   19.1274 C   0  0  0  0  0  0  0  0  0  0  0  0
   17.3240    2.0517   17.8127 C   0  0  0  0  0  0  0  0  0  0  0  0
   17.8599    0.6350   17.6072 C   0  0  0  0  0  0  0  0  0  0  0  0
   16.8310   -0.3647   17.4120 N   0  0  0  0  0  0  0  0  0  0  0  0
   15.7383   -0.3086   16.6013 C   0  0  0  0  0  0  0  0  0  0  0  0
   15.1202   -1.5197   16.7939 C   0  0  0  0  0  0  0  0  0  0  0  0
   13.8020   -1.9896   16.1158 C   0  0  0  0  0  0  0  0  0  0  0  0
   13.0487   -1.2284   15.2465 C   0  0  0  0  0  0  0  0  0  0  0  0
   11.9012   -1.9321   14.7776 C   0  0  0  0  0  0  0  0  0  0  0  0
   11.8373   -3.2063   15.2928 C   0  0  0  0  0  0  0  0  0  0  0  0
   13.1188   -3.5292   16.3758 S   0  0  0  0  0  0  0  0  0  0  0  0
   15.8521   -2.2618   17.6785 N   0  0  0  0  0  0  0  0  0  0  0  0
   16.9011   -1.5403   18.0568 N   0  0  0  0  0  0  0  0  0  0  0  0
   15.7832    5.3888   20.9962 H   0  0  0  0  0  0  0  0  0  0  0  0
   15.4092    4.3028   22.4550 H   0  0  0  0  0  0  0  0  0  0  0  0
   16.7096    4.0018   21.3814 H   0  0  0  0  0  0  0  0  0  0  0  0
   13.1067    4.2134   20.0996 H   0  0  0  0  0  0  0  0  0  0  0  0
   13.8323    5.3567   21.1006 H   0  0  0  0  0  0  0  0  0  0  0  0
   13.5077    2.4872   22.2527 H   0  0  0  0  0  0  0  0  0  0  0  0
   11.0958    2.5142   22.4656 H   0  0  0  0  0  0  0  0  0  0  0  0
   11.0771    3.5224   21.0037 H   0  0  0  0  0  0  0  0  0  0  0  0
   10.6498    4.6737   23.6345 H   0  0  0  0  0  0  0  0  0  0  0  0
   11.4463    5.6038   22.3409 H   0  0  0  0  0  0  0  0  0  0  0  0
   13.5189    5.0960   23.6359 H   0  0  0  0  0  0  0  0  0  0  0  0
   12.8060    3.6134   24.3109 H   0  0  0  0  0  0  0  0  0  0  0  0
   15.9442    1.3184   19.3279 H   0  0  0  0  0  0  0  0  0  0  0  0
   17.2656    2.3201   19.9519 H   0  0  0  0  0  0  0  0  0  0  0  0
   16.7015    2.3329   16.9556 H   0  0  0  0  0  0  0  0  0  0  0  0
   18.1661    2.7550   17.8162 H   0  0  0  0  0  0  0  0  0  0  0  0
   18.4932    0.5997   16.7135 H   0  0  0  0  0  0  0  0  0  0  0  0
   18.4719    0.3333   18.4651 H   0  0  0  0  0  0  0  0  0  0  0  0
   15.5054    0.5422   15.9814 H   0  0  0  0  0  0  0  0  0  0  0  0
   13.2969   -0.2166   14.9528 H   0  0  0  0  0  0  0  0  0  0  0  0
   11.1702   -1.5308   14.0861 H   0  0  0  0  0  0  0  0  0  0  0  0
   11.0963   -3.9659   15.0945 H   0  0  0  0  0  0  0  0  0  0  0  0
  1  2  1  0
  2  3  1  0
  3  4  1  0
  4  5  1  0
  5  6  1  0
  6  7  1  0
  2  8  1  0
  8  9  2  0
  8 10  1  0
 10 11  1  0
 11 12  1  0
 12 13  1  0
 13 14  1  0
 14 15  2  0
 15 16  1  0
 16 17  2  0
 17 18  1  0
 18 19  2  0
 19 20  1  0
 15 21  1  0
 21 22  2  0
  7  4  1  0
 22 13  1  0
 20 16  1  0
  1 23  1  0
  1 24  1  0
  1 25  1  0
  3 26  1  0
  3 27  1  0
  4 28  1  0
  5 29  1  0
  5 30  1  0
  6 31  1  0
  6 32  1  0
  7 33  1  0
  7 34  1  0
 10 35  1  0
 10 36  1  0
 11 37  1  0
 11 38  1  0
 12 39  1  0
 12 40  1  0
 14 41  1  0
 17 42  1  0
 18 43  1  0
 19 44  1  0
M  END
>  <Energy>  (866) 
96.5663354671414

>  <compound_id>  (866) 
63558

>  <target_id>  (866) 
1

>  <reference_id>  (866) 
44

>  <inspiration_ids>  (866) 
[66, 44]

>  <energy_score>  (866) 
35.16227723263603

>  <distance_score>  (866) 
11.009986556285657

>  <path>  (866) 
/opt/xchem-fragalysis-2/maxwin/BulkDock/SCRATCH/511025/C63558-P44/C63558-P44.minimised.mol

>  <scratch_subdir>  (866) 
/opt/xchem-fragalysis-2/maxwin/BulkDock/SCRATCH/511025/C63558-P44

>  <fragmenstein_runtime>  (866) 
30.76735210418701

>  <fragmenstein_outcome>  (866) 
too moved

>  <fragmenstein_mode>  (866) 
expansion

>  <fragmenstein_error>  (866) 


$$$$
C63559-P66
     RDKit          3D

 46 48  0  0  0  0  0  0  0  0999 V2000
    8.3150   -2.8667   20.7308 C   0  0  0  0  0  0  0  0  0  0  0  0
    7.5105   -3.7072   20.9369 N   0  0  0  0  0  0  0  0  0  0  0  0
    8.8756   -4.7389   20.2280 C   0  0  0  0  0  0  0  0  0  0  0  0
   10.8698   -5.0987   20.6835 C   0  0  0  0  0  0  0  0  0  0  0  0
   11.8754   -5.6848   20.0256 N   0  0  0  0  0  0  0  0  0  0  0  0
   12.9816   -4.8897   20.1940 C   0  0  0  0  0  0  0  0  0  0  0  0
   13.8920   -4.2836   19.0495 C   0  0  0  0  0  0  0  0  0  0  0  0
   14.9377   -3.4117   19.2826 C   0  0  0  0  0  0  0  0  0  0  0  0
   15.4926   -2.8902   18.0746 C   0  0  0  0  0  0  0  0  0  0  0  0
   14.8489   -3.3771   16.9604 C   0  0  0  0  0  0  0  0  0  0  0  0
   13.5731   -4.4279   17.3788 S   0  0  0  0  0  0  0  0  0  0  0  0
   12.9842   -4.3916   21.4159 N   0  0  0  0  0  0  0  0  0  0  0  0
   11.5988   -4.2280   21.5951 O   0  0  0  0  0  0  0  0  0  0  0  0
    6.8954   -3.5862   22.6316 C   0  0  0  0  0  0  0  0  0  0  0  0
    7.3316   -4.1399   23.6012 O   0  0  0  0  0  0  0  0  0  0  0  0
    5.4509   -2.2665   22.9620 C   0  0  0  0  0  0  0  0  0  0  0  0
    4.1591   -2.2142   24.2503 C   0  0  0  0  0  0  0  0  0  0  0  0
    4.3385   -1.1048   25.3739 C   0  0  0  0  0  0  0  0  0  0  0  0
    3.6904   -0.9372   26.7731 C   0  0  0  0  0  0  0  0  0  0  0  0
    3.4176   -2.1434   27.6457 C   0  0  0  0  0  0  0  0  0  0  0  0
    2.6012   -1.6014   28.8339 C   0  0  0  0  0  0  0  0  0  0  0  0
    2.1244   -0.2100   28.4246 C   0  0  0  0  0  0  0  0  0  0  0  0
    2.3808   -0.1798   26.9265 C   0  0  0  0  0  0  0  0  0  0  0  0
    7.6935   -1.8521   20.6254 H   0  0  0  0  0  0  0  0  0  0  0  0
    8.9870   -2.9918   19.9549 H   0  0  0  0  0  0  0  0  0  0  0  0
    8.4840   -3.1199   21.6396 H   0  0  0  0  0  0  0  0  0  0  0  0
    9.0235   -5.3316   19.4025 H   0  0  0  0  0  0  0  0  0  0  0  0
    8.2305   -5.0478   21.1067 H   0  0  0  0  0  0  0  0  0  0  0  0
   15.2732   -3.1414   20.2778 H   0  0  0  0  0  0  0  0  0  0  0  0
   16.3213   -2.1944   18.0298 H   0  0  0  0  0  0  0  0  0  0  0  0
   15.0615   -3.1623   15.9222 H   0  0  0  0  0  0  0  0  0  0  0  0
    5.9385   -1.7279   23.7218 H   0  0  0  0  0  0  0  0  0  0  0  0
    5.3400   -1.6459   22.0904 H   0  0  0  0  0  0  0  0  0  0  0  0
    3.2048   -2.1463   23.7465 H   0  0  0  0  0  0  0  0  0  0  0  0
    4.0875   -3.1645   24.7670 H   0  0  0  0  0  0  0  0  0  0  0  0
    4.2234   -0.1327   24.8987 H   0  0  0  0  0  0  0  0  0  0  0  0
    5.3932   -1.2124   25.6569 H   0  0  0  0  0  0  0  0  0  0  0  0
    4.4304   -0.3272   27.3200 H   0  0  0  0  0  0  0  0  0  0  0  0
    4.3408   -2.6140   27.9901 H   0  0  0  0  0  0  0  0  0  0  0  0
    2.8112   -2.8695   27.0999 H   0  0  0  0  0  0  0  0  0  0  0  0
    1.7576   -2.2665   29.0479 H   0  0  0  0  0  0  0  0  0  0  0  0
    3.2136   -1.5449   29.7404 H   0  0  0  0  0  0  0  0  0  0  0  0
    1.0723   -0.0414   28.6724 H   0  0  0  0  0  0  0  0  0  0  0  0
    2.7208    0.5574   28.9313 H   0  0  0  0  0  0  0  0  0  0  0  0
    2.4126    0.8380   26.5314 H   0  0  0  0  0  0  0  0  0  0  0  0
    1.5781   -0.7611   26.4856 H   0  0  0  0  0  0  0  0  0  0  0  0
  1  2  1  0
  2  3  1  0
  3  4  1  0
  4  5  2  0
  5  6  1  0
  6  7  1  0
  7  8  2  0
  8  9  1  0
  9 10  2  0
 10 11  1  0
  6 12  2  0
 12 13  1  0
  2 14  1  0
 14 15  2  0
 14 16  1  0
 16 17  1  0
 17 18  1  0
 18 19  1  0
 19 20  1  0
 20 21  1  0
 21 22  1  0
 22 23  1  0
 13  4  1  0
 23 19  1  0
 11  7  1  0
  1 24  1  0
  1 25  1  0
  1 26  1  0
  3 27  1  0
  3 28  1  0
  8 29  1  0
  9 30  1  0
 10 31  1  0
 16 32  1  0
 16 33  1  0
 17 34  1  0
 17 35  1  0
 18 36  1  0
 18 37  1  0
 19 38  1  0
 20 39  1  0
 20 40  1  0
 21 41  1  0
 21 42  1  0
 22 43  1  0
 22 44  1  0
 23 45  1  0
 23 46  1  0
M  END
>  <Energy>  (867) 
594.67548300589169

>  <compound_id>  (867) 
63559

>  <target_id>  (867) 
1

>  <reference_id>  (867) 
66

>  <inspiration_ids>  (867) 
[66, 44]

>  <energy_score>  (867) 
499.99923952171844

>  <distance_score>  (867) 
6.060134169078097

>  <path>  (867) 
/opt/xchem-fragalysis-2/maxwin/BulkDock/SCRATCH/511025/C63559-P66/C63559-P66.minimised.mol

>  <scratch_subdir>  (867) 
/opt/xchem-fragalysis-2/maxwin/BulkDock/SCRATCH/511025/C63559-P66

>  <fragmenstein_runtime>  (867) 
18.274024963378906

>  <fragmenstein_outcome>  (867) 
too moved

>  <fragmenstein_mode>  (867) 
expansion

>  <fragmenstein_error>  (867) 


$$$$
C63559-P44
     RDKit          3D

 46 48  0  0  0  0  0  0  0  0999 V2000
    5.6421   -2.8149   21.2802 C   0  0  0  0  0  0  0  0  0  0  0  0
    6.5122   -3.5779   22.6070 N   0  0  0  0  0  0  0  0  0  0  0  0
    8.0946   -3.0724   21.4678 C   0  0  0  0  0  0  0  0  0  0  0  0
   10.2169   -2.9392   22.2761 C   0  0  0  0  0  0  0  0  0  0  0  0
   10.7938   -2.8593   23.5355 N   0  0  0  0  0  0  0  0  0  0  0  0
   12.1233   -3.2348   23.2613 C   0  0  0  0  0  0  0  0  0  0  0  0
   13.4208   -2.3970   23.5700 C   0  0  0  0  0  0  0  0  0  0  0  0
   13.4437   -1.2095   24.2608 C   0  0  0  0  0  0  0  0  0  0  0  0
   14.6818   -0.5237   24.0822 C   0  0  0  0  0  0  0  0  0  0  0  0
   15.5765   -1.2448   23.3221 C   0  0  0  0  0  0  0  0  0  0  0  0
   14.9336   -2.7485   22.8378 S   0  0  0  0  0  0  0  0  0  0  0  0
   12.2175   -4.1059   22.2627 N   0  0  0  0  0  0  0  0  0  0  0  0
   11.0713   -3.8626   21.5595 O   0  0  0  0  0  0  0  0  0  0  0  0
    5.9159   -2.9077   24.2357 C   0  0  0  0  0  0  0  0  0  0  0  0
    6.3210   -1.9488   24.9037 O   0  0  0  0  0  0  0  0  0  0  0  0
    4.7815   -3.6922   25.0504 C   0  0  0  0  0  0  0  0  0  0  0  0
    4.8399   -3.3758   26.6118 C   0  0  0  0  0  0  0  0  0  0  0  0
    3.6606   -2.6258   27.2918 C   0  0  0  0  0  0  0  0  0  0  0  0
    3.5293   -1.1067   27.0873 C   0  0  0  0  0  0  0  0  0  0  0  0
    4.5927   -0.2549   27.7770 C   0  0  0  0  0  0  0  0  0  0  0  0
    3.9821    1.1499   27.8218 C   0  0  0  0  0  0  0  0  0  0  0  0
    2.4675    0.9623   27.7586 C   0  0  0  0  0  0  0  0  0  0  0  0
    2.2514   -0.5450   27.7362 C   0  0  0  0  0  0  0  0  0  0  0  0
    5.0528   -2.4921   22.1346 H   0  0  0  0  0  0  0  0  0  0  0  0
    5.9566   -1.9217   20.7645 H   0  0  0  0  0  0  0  0  0  0  0  0
    5.2307   -3.3706   20.4283 H   0  0  0  0  0  0  0  0  0  0  0  0
    8.0233   -3.9775   20.7744 H   0  0  0  0  0  0  0  0  0  0  0  0
    7.5371   -2.2127   21.2011 H   0  0  0  0  0  0  0  0  0  0  0  0
   12.5787   -0.8043   24.7730 H   0  0  0  0  0  0  0  0  0  0  0  0
   14.9006    0.4553   24.4903 H   0  0  0  0  0  0  0  0  0  0  0  0
   16.5825   -0.9656   23.0413 H   0  0  0  0  0  0  0  0  0  0  0  0
    4.9815   -4.7647   24.9532 H   0  0  0  0  0  0  0  0  0  0  0  0
    3.7755   -3.4105   24.7704 H   0  0  0  0  0  0  0  0  0  0  0  0
    5.7837   -2.9025   26.9016 H   0  0  0  0  0  0  0  0  0  0  0  0
    4.8658   -4.3626   27.0971 H   0  0  0  0  0  0  0  0  0  0  0  0
    2.7317   -3.1287   27.0118 H   0  0  0  0  0  0  0  0  0  0  0  0
    3.7589   -2.8057   28.3719 H   0  0  0  0  0  0  0  0  0  0  0  0
    3.5508   -0.8588   26.0215 H   0  0  0  0  0  0  0  0  0  0  0  0
    5.5473   -0.2651   27.2421 H   0  0  0  0  0  0  0  0  0  0  0  0
    4.7768   -0.6111   28.7980 H   0  0  0  0  0  0  0  0  0  0  0  0
    4.2891    1.6835   28.7270 H   0  0  0  0  0  0  0  0  0  0  0  0
    4.3202    1.7399   26.9621 H   0  0  0  0  0  0  0  0  0  0  0  0
    1.9605    1.4287   28.6091 H   0  0  0  0  0  0  0  0  0  0  0  0
    2.0740    1.4223   26.8458 H   0  0  0  0  0  0  0  0  0  0  0  0
    1.3352   -0.8126   27.2094 H   0  0  0  0  0  0  0  0  0  0  0  0
    2.1532   -0.9157   28.7648 H   0  0  0  0  0  0  0  0  0  0  0  0
  1  2  1  0
  2  3  1  0
  3  4  1  0
  4  5  2  0
  5  6  1  0
  6  7  1  0
  7  8  2  0
  8  9  1  0
  9 10  2  0
 10 11  1  0
  6 12  2  0
 12 13  1  0
  2 14  1  0
 14 15  2  0
 14 16  1  0
 16 17  1  0
 17 18  1  0
 18 19  1  0
 19 20  1  0
 20 21  1  0
 21 22  1  0
 22 23  1  0
 13  4  1  0
 23 19  1  0
 11  7  1  0
  1 24  1  0
  1 25  1  0
  1 26  1  0
  3 27  1  0
  3 28  1  0
  8 29  1  0
  9 30  1  0
 10 31  1  0
 16 32  1  0
 16 33  1  0
 17 34  1  0
 17 35  1  0
 18 36  1  0
 18 37  1  0
 19 38  1  0
 20 39  1  0
 20 40  1  0
 21 41  1  0
 21 42  1  0
 22 43  1  0
 22 44  1  0
 23 45  1  0
 23 46  1  0
M  END
>  <Energy>  (868) 
537.76408723174882

>  <compound_id>  (868) 
63559

>  <target_id>  (868) 
1

>  <reference_id>  (868) 
44

>  <inspiration_ids>  (868) 
[66, 44]

>  <energy_score>  (868) 
443.0878437475774

>  <distance_score>  (868) 
7.2192198071127605

>  <path>  (868) 
/opt/xchem-fragalysis-2/maxwin/BulkDock/SCRATCH/511025/C63559-P44/C63559-P44.minimised.mol

>  <scratch_subdir>  (868) 
/opt/xchem-fragalysis-2/maxwin/BulkDock/SCRATCH/511025/C63559-P44

>  <fragmenstein_runtime>  (868) 
16.153517484664917

>  <fragmenstein_outcome>  (868) 
too moved

>  <fragmenstein_mode>  (868) 
expansion

>  <fragmenstein_error>  (868) 


$$$$
C26114-P66
     RDKit          3D

 47 48  0  0  0  0  0  0  0  0999 V2000
    7.3633   -0.1251   17.2790 C   0  0  0  0  0  0  0  0  0  0  0  0
    7.9063   -0.6997   16.2524 N   0  0  0  0  0  0  0  0  0  0  0  0
    7.2908   -0.3008   18.1994 C   0  0  0  0  0  0  0  0  0  0  0  0
    7.0881    1.0299   19.6059 C   0  0  0  0  0  0  0  0  0  0  0  0
    6.2613    0.9810   21.4331 N   0  0  0  0  0  0  0  0  0  0  0  0
    4.4672    0.8061   22.0321 C   0  0  0  0  0  0  0  0  0  0  0  0
    3.4492    0.7830   21.4146 O   0  0  0  0  0  0  0  0  0  0  0  0
    4.2557    0.4079   24.1024 C   0  0  0  0  0  0  0  0  0  0  0  0
    3.2520    0.2364   25.3440 C   0  0  0  0  0  0  0  0  0  0  0  0
    2.6707    1.4118   26.1870 C   0  0  0  0  0  0  0  0  0  0  0  0
    1.4775    2.1130   25.7144 N   0  0  0  0  0  0  0  0  0  0  0  0
    0.6829    2.7012   26.7933 C   0  0  0  0  0  0  0  0  0  0  0  0
   -0.3258    3.5451   26.0324 C   0  0  0  0  0  0  0  0  0  0  0  0
    0.3833    3.9199   24.7345 C   0  0  0  0  0  0  0  0  0  0  0  0
    1.7326    3.2096   24.7897 C   0  0  0  0  0  0  0  0  0  0  0  0
    9.4431   -1.6371   15.9256 C   0  0  0  0  0  0  0  0  0  0  0  0
   10.2642   -2.0205   16.6206 O   0  0  0  0  0  0  0  0  0  0  0  0
    9.8122   -1.8619   14.6215 C   0  0  0  0  0  0  0  0  0  0  0  0
   10.9192   -2.8323   14.3574 C   0  0  0  0  0  0  0  0  0  0  0  0
   12.1025   -2.2219   13.9926 C   0  0  0  0  0  0  0  0  0  0  0  0
   12.0141   -0.5325   13.8691 S   0  0  0  0  0  0  0  0  0  0  0  0
   10.3334   -0.5822   14.1551 C   0  0  0  0  0  0  0  0  0  0  0  0
    7.7584    1.0949   17.2628 H   0  0  0  0  0  0  0  0  0  0  0  0
    6.3121   -0.6147   16.8589 H   0  0  0  0  0  0  0  0  0  0  0  0
    7.0324    0.5140   16.3098 H   0  0  0  0  0  0  0  0  0  0  0  0
    6.4543   -1.0177   18.5213 H   0  0  0  0  0  0  0  0  0  0  0  0
    8.1933   -0.7090   18.8425 H   0  0  0  0  0  0  0  0  0  0  0  0
    7.2236    2.0714   19.2583 H   0  0  0  0  0  0  0  0  0  0  0  0
    8.1022    0.9125   20.0259 H   0  0  0  0  0  0  0  0  0  0  0  0
    6.8365    1.0612   22.1156 H   0  0  0  0  0  0  0  0  0  0  0  0
    4.9924    0.6893   24.8757 H   0  0  0  0  0  0  0  0  0  0  0  0
    4.4722   -0.7145   24.0563 H   0  0  0  0  0  0  0  0  0  0  0  0
    3.9120   -0.2214   26.1140 H   0  0  0  0  0  0  0  0  0  0  0  0
    2.6387   -0.6558   25.2228 H   0  0  0  0  0  0  0  0  0  0  0  0
    3.4631    2.1201   26.4575 H   0  0  0  0  0  0  0  0  0  0  0  0
    2.3983    0.9389   27.1428 H   0  0  0  0  0  0  0  0  0  0  0  0
    1.2963    3.3356   27.4456 H   0  0  0  0  0  0  0  0  0  0  0  0
    0.1849    1.9422   27.4052 H   0  0  0  0  0  0  0  0  0  0  0  0
   -1.2277    2.9634   25.8067 H   0  0  0  0  0  0  0  0  0  0  0  0
   -0.6287    4.4287   26.6029 H   0  0  0  0  0  0  0  0  0  0  0  0
   -0.2055    3.5739   23.8767 H   0  0  0  0  0  0  0  0  0  0  0  0
    0.5086    5.0034   24.6412 H   0  0  0  0  0  0  0  0  0  0  0  0
    2.0379    2.8664   23.7981 H   0  0  0  0  0  0  0  0  0  0  0  0
    2.4965    3.8965   25.1748 H   0  0  0  0  0  0  0  0  0  0  0  0
   10.8812   -3.8540   14.7051 H   0  0  0  0  0  0  0  0  0  0  0  0
   13.0731   -2.6462   13.8591 H   0  0  0  0  0  0  0  0  0  0  0  0
    9.7947    0.3542   14.1308 H   0  0  0  0  0  0  0  0  0  0  0  0
  1  2  1  0
  2  3  1  0
  3  4  1  0
  4  5  1  0
  5  6  1  0
  6  7  2  0
  6  8  1  0
  8  9  1  0
  9 10  1  0
 10 11  1  0
 11 12  1  0
 12 13  1  0
 13 14  1  0
 14 15  1  0
  2 16  1  0
 16 17  2  0
 16 18  1  0
 18 19  1  0
 19 20  2  0
 20 21  1  0
 21 22  1  0
 15 11  1  0
 22 18  2  0
  1 23  1  0
  1 24  1  0
  1 25  1  0
  3 26  1  0
  3 27  1  0
  4 28  1  0
  4 29  1  0
  5 30  1  0
  8 31  1  0
  8 32  1  0
  9 33  1  0
  9 34  1  0
 10 35  1  0
 10 36  1  0
 12 37  1  0
 12 38  1  0
 13 39  1  0
 13 40  1  0
 14 41  1  0
 14 42  1  0
 15 43  1  0
 15 44  1  0
 19 45  1  0
 20 46  1  0
 22 47  1  0
M  END
>  <Energy>  (869) 
1248.0443831217167

>  <compound_id>  (869) 
26114

>  <target_id>  (869) 
1

>  <reference_id>  (869) 
66

>  <inspiration_ids>  (869) 
[66, 44]

>  <energy_score>  (869) 
1209.8960950978678

>  <distance_score>  (869) 
3.924331326511503

>  <path>  (869) 
/opt/xchem-fragalysis-2/maxwin/BulkDock/SCRATCH/511025/C26114-P66/C26114-P66.minimised.mol

>  <scratch_subdir>  (869) 
/opt/xchem-fragalysis-2/maxwin/BulkDock/SCRATCH/511025/C26114-P66

>  <fragmenstein_runtime>  (869) 
9.576432704925537

>  <fragmenstein_outcome>  (869) 
too moved

>  <fragmenstein_mode>  (869) 
expansion

>  <fragmenstein_error>  (869) 


$$$$
C26114-P44
     RDKit          3D

 47 48  0  0  0  0  0  0  0  0999 V2000
    8.1448    2.9360   18.2658 C   0  0  0  0  0  0  0  0  0  0  0  0
    8.7322    2.0563   17.5042 N   0  0  0  0  0  0  0  0  0  0  0  0
    7.9313    2.9578   19.0697 C   0  0  0  0  0  0  0  0  0  0  0  0
    7.3413    1.5469   20.1006 C   0  0  0  0  0  0  0  0  0  0  0  0
    5.9965    2.1250   21.3979 N   0  0  0  0  0  0  0  0  0  0  0  0
    4.9168    1.1534   22.6012 C   0  0  0  0  0  0  0  0  0  0  0  0
    4.9130   -0.0546   22.8611 O   0  0  0  0  0  0  0  0  0  0  0  0
    3.9613    2.2788   23.4237 C   0  0  0  0  0  0  0  0  0  0  0  0
    3.8163    1.9146   24.9336 C   0  0  0  0  0  0  0  0  0  0  0  0
    3.0325    2.9569   25.7695 C   0  0  0  0  0  0  0  0  0  0  0  0
    1.5943    2.6925   25.8967 N   0  0  0  0  0  0  0  0  0  0  0  0
    1.2700    1.8533   27.0637 C   0  0  0  0  0  0  0  0  0  0  0  0
   -0.2362    2.0314   27.2204 C   0  0  0  0  0  0  0  0  0  0  0  0
   -0.5445    3.3688   26.5576 C   0  0  0  0  0  0  0  0  0  0  0  0
    0.8107    3.9118   26.1283 C   0  0  0  0  0  0  0  0  0  0  0  0
    9.6756    2.4831   16.2752 C   0  0  0  0  0  0  0  0  0  0  0  0
   10.0767    3.5029   15.9155 O   0  0  0  0  0  0  0  0  0  0  0  0
   10.1168    1.2373   15.6129 C   0  0  0  0  0  0  0  0  0  0  0  0
    9.4820   -0.0497   15.6463 C   0  0  0  0  0  0  0  0  0  0  0  0
   10.2504   -1.0373   15.0707 C   0  0  0  0  0  0  0  0  0  0  0  0
   11.7172   -0.4283   14.4385 S   0  0  0  0  0  0  0  0  0  0  0  0
   11.2989    1.1661   14.8907 C   0  0  0  0  0  0  0  0  0  0  0  0
    9.2506    3.6023   18.1596 H   0  0  0  0  0  0  0  0  0  0  0  0
    7.2318    2.8574   17.4498 H   0  0  0  0  0  0  0  0  0  0  0  0
    7.9899    4.0308   17.6086 H   0  0  0  0  0  0  0  0  0  0  0  0
    7.0055    3.8083   19.2014 H   0  0  0  0  0  0  0  0  0  0  0  0
    8.8047    3.3230   19.8676 H   0  0  0  0  0  0  0  0  0  0  0  0
    6.9922    0.7047   19.4641 H   0  0  0  0  0  0  0  0  0  0  0  0
    8.3958    1.2755   20.2984 H   0  0  0  0  0  0  0  0  0  0  0  0
    5.8137    3.1693   21.4736 H   0  0  0  0  0  0  0  0  0  0  0  0
    4.4503    3.2594   23.3661 H   0  0  0  0  0  0  0  0  0  0  0  0
    2.9851    2.3684   22.9439 H   0  0  0  0  0  0  0  0  0  0  0  0
    4.8327    1.8611   25.3465 H   0  0  0  0  0  0  0  0  0  0  0  0
    3.4096    0.9086   25.0680 H   0  0  0  0  0  0  0  0  0  0  0  0
    3.1850    3.9356   25.2956 H   0  0  0  0  0  0  0  0  0  0  0  0
    3.4944    3.0386   26.7621 H   0  0  0  0  0  0  0  0  0  0  0  0
    1.7712    2.2155   27.9711 H   0  0  0  0  0  0  0  0  0  0  0  0
    1.5439    0.8036   26.9240 H   0  0  0  0  0  0  0  0  0  0  0  0
   -0.7856    1.2277   26.7179 H   0  0  0  0  0  0  0  0  0  0  0  0
   -0.5284    2.0280   28.2756 H   0  0  0  0  0  0  0  0  0  0  0  0
   -1.1915    3.2094   25.6867 H   0  0  0  0  0  0  0  0  0  0  0  0
   -1.0593    4.0538   27.2387 H   0  0  0  0  0  0  0  0  0  0  0  0
    0.7278    4.5243   25.2249 H   0  0  0  0  0  0  0  0  0  0  0  0
    1.2434    4.5239   26.9302 H   0  0  0  0  0  0  0  0  0  0  0  0
    8.5108   -0.2233   16.0917 H   0  0  0  0  0  0  0  0  0  0  0  0
   10.0170   -2.0854   14.9502 H   0  0  0  0  0  0  0  0  0  0  0  0
   11.9769    1.9805   14.6732 H   0  0  0  0  0  0  0  0  0  0  0  0
  1  2  1  0
  2  3  1  0
  3  4  1  0
  4  5  1  0
  5  6  1  0
  6  7  2  0
  6  8  1  0
  8  9  1  0
  9 10  1  0
 10 11  1  0
 11 12  1  0
 12 13  1  0
 13 14  1  0
 14 15  1  0
  2 16  1  0
 16 17  2  0
 16 18  1  0
 18 19  1  0
 19 20  2  0
 20 21  1  0
 21 22  1  0
 15 11  1  0
 22 18  2  0
  1 23  1  0
  1 24  1  0
  1 25  1  0
  3 26  1  0
  3 27  1  0
  4 28  1  0
  4 29  1  0
  5 30  1  0
  8 31  1  0
  8 32  1  0
  9 33  1  0
  9 34  1  0
 10 35  1  0
 10 36  1  0
 12 37  1  0
 12 38  1  0
 13 39  1  0
 13 40  1  0
 14 41  1  0
 14 42  1  0
 15 43  1  0
 15 44  1  0
 19 45  1  0
 20 46  1  0
 22 47  1  0
M  END
>  <Energy>  (870) 
900.5373150198501

>  <compound_id>  (870) 
26114

>  <target_id>  (870) 
1

>  <reference_id>  (870) 
44

>  <inspiration_ids>  (870) 
[66, 44]

>  <energy_score>  (870) 
862.3890269960143

>  <distance_score>  (870) 
4.111087266252111

>  <path>  (870) 
/opt/xchem-fragalysis-2/maxwin/BulkDock/SCRATCH/511025/C26114-P44/C26114-P44.minimised.mol

>  <scratch_subdir>  (870) 
/opt/xchem-fragalysis-2/maxwin/BulkDock/SCRATCH/511025/C26114-P44

>  <fragmenstein_runtime>  (870) 
16.017096996307373

>  <fragmenstein_outcome>  (870) 
too moved

>  <fragmenstein_mode>  (870) 
expansion

>  <fragmenstein_error>  (870) 


$$$$
C63560-P66
     RDKit          3D

 49 50  0  0  0  0  0  0  0  0999 V2000
    6.9408   -1.2310   12.5397 C   0  0  0  0  0  0  0  0  0  0  0  0
    6.9401   -1.6059   13.8971 O   0  0  0  0  0  0  0  0  0  0  0  0
    8.0084   -1.1431   14.5820 C   0  0  0  0  0  0  0  0  0  0  0  0
    9.0062   -0.2284   14.1461 C   0  0  0  0  0  0  0  0  0  0  0  0
   10.6293   -0.9292   14.5317 S   0  0  0  0  0  0  0  0  0  0  0  0
    9.6514   -1.9533   15.6182 C   0  0  0  0  0  0  0  0  0  0  0  0
    8.2249   -1.4803   15.9448 C   0  0  0  0  0  0  0  0  0  0  0  0
    7.9598   -0.1897   17.3630 C   0  0  0  0  0  0  0  0  0  0  0  0
    7.5990    0.8501   16.8791 O   0  0  0  0  0  0  0  0  0  0  0  0
    8.3577   -0.4480   18.9876 N   0  0  0  0  0  0  0  0  0  0  0  0
    8.4678    0.5129   20.1129 C   0  0  0  0  0  0  0  0  0  0  0  0
    7.0791   -0.9024   19.8276 C   0  0  0  0  0  0  0  0  0  0  0  0
    6.1673   -2.4354   20.7669 C   0  0  0  0  0  0  0  0  0  0  0  0
    6.7380   -3.7998   21.1897 N   0  0  0  0  0  0  0  0  0  0  0  0
    6.0835   -5.0593   21.4451 C   0  0  0  0  0  0  0  0  0  0  0  0
    4.9411   -5.3840   21.3168 O   0  0  0  0  0  0  0  0  0  0  0  0
    7.1377   -6.0652   21.9199 C   0  0  0  0  0  0  0  0  0  0  0  0
    6.5903   -7.4702   22.1722 C   0  0  0  0  0  0  0  0  0  0  0  0
    5.8247   -7.5709   23.4951 C   0  0  0  0  0  0  0  0  0  0  0  0
    5.2974   -8.9859   23.6938 C   0  0  0  0  0  0  0  0  0  0  0  0
    6.3292  -10.0979   24.0285 C   0  0  0  0  0  0  0  0  0  0  0  0
    5.2660  -10.6989   24.9701 C   0  0  0  0  0  0  0  0  0  0  0  0
    4.6690   -9.2817   25.0819 C   0  0  0  0  0  0  0  0  0  0  0  0
    7.0877   -2.0628   11.8836 H   0  0  0  0  0  0  0  0  0  0  0  0
    6.0112   -0.7977   12.2568 H   0  0  0  0  0  0  0  0  0  0  0  0
    7.6600   -0.4880   12.2584 H   0  0  0  0  0  0  0  0  0  0  0  0
    9.0881    0.4364   13.3135 H   0  0  0  0  0  0  0  0  0  0  0  0
   10.4195   -2.3982   16.2280 H   0  0  0  0  0  0  0  0  0  0  0  0
    7.7367    1.3319   20.1221 H   0  0  0  0  0  0  0  0  0  0  0  0
    9.3121    1.1991   20.0085 H   0  0  0  0  0  0  0  0  0  0  0  0
    9.0114    0.1345   20.9621 H   0  0  0  0  0  0  0  0  0  0  0  0
    6.5741   -0.8803   18.8449 H   0  0  0  0  0  0  0  0  0  0  0  0
    6.5960   -0.0818   20.3282 H   0  0  0  0  0  0  0  0  0  0  0  0
    5.6204   -2.0252   21.6299 H   0  0  0  0  0  0  0  0  0  0  0  0
    5.4171   -2.8883   20.1059 H   0  0  0  0  0  0  0  0  0  0  0  0
    7.6975   -3.8615   21.4892 H   0  0  0  0  0  0  0  0  0  0  0  0
    7.9050   -6.1280   21.1380 H   0  0  0  0  0  0  0  0  0  0  0  0
    7.6066   -5.6839   22.8327 H   0  0  0  0  0  0  0  0  0  0  0  0
    5.9502   -7.7883   21.3405 H   0  0  0  0  0  0  0  0  0  0  0  0
    7.4350   -8.1697   22.1987 H   0  0  0  0  0  0  0  0  0  0  0  0
    6.4827   -7.2868   24.3252 H   0  0  0  0  0  0  0  0  0  0  0  0
    4.9831   -6.8696   23.5005 H   0  0  0  0  0  0  0  0  0  0  0  0
    4.6226   -9.2791   22.8759 H   0  0  0  0  0  0  0  0  0  0  0  0
    6.6311  -10.7324   23.1911 H   0  0  0  0  0  0  0  0  0  0  0  0
    7.2266   -9.7441   24.5497 H   0  0  0  0  0  0  0  0  0  0  0  0
    4.6012  -11.4207   24.4819 H   0  0  0  0  0  0  0  0  0  0  0  0
    5.6430  -11.1316   25.8999 H   0  0  0  0  0  0  0  0  0  0  0  0
    3.5781   -9.2301   25.1299 H   0  0  0  0  0  0  0  0  0  0  0  0
    5.0905   -8.6952   25.9070 H   0  0  0  0  0  0  0  0  0  0  0  0
  1  2  1  0
  2  3  1  0
  3  4  2  0
  4  5  1  0
  5  6  1  0
  6  7  2  0
  7  8  1  0
  8  9  2  0
  8 10  1  0
 10 11  1  0
 10 12  1  0
 12 13  1  0
 13 14  1  0
 14 15  1  0
 15 16  2  0
 15 17  1  0
 17 18  1  0
 18 19  1  0
 19 20  1  0
 20 21  1  0
 21 22  1  0
 22 23  1  0
  7  3  1  0
 23 20  1  0
  1 24  1  0
  1 25  1  0
  1 26  1  0
  4 27  1  0
  6 28  1  0
 11 29  1  0
 11 30  1  0
 11 31  1  0
 12 32  1  0
 12 33  1  0
 13 34  1  0
 13 35  1  0
 14 36  1  0
 17 37  1  0
 17 38  1  0
 18 39  1  0
 18 40  1  0
 19 41  1  0
 19 42  1  0
 20 43  1  0
 21 44  1  0
 21 45  1  0
 22 46  1  0
 22 47  1  0
 23 48  1  0
 23 49  1  0
M  END
>  <Energy>  (871) 
378.76301536034242

>  <compound_id>  (871) 
63560

>  <target_id>  (871) 
1

>  <reference_id>  (871) 
66

>  <inspiration_ids>  (871) 
[66, 44]

>  <energy_score>  (871) 
320.8260488400794

>  <distance_score>  (871) 
8.789280533187537

>  <path>  (871) 
/opt/xchem-fragalysis-2/maxwin/BulkDock/SCRATCH/511025/C63560-P66/C63560-P66.minimised.mol

>  <scratch_subdir>  (871) 
/opt/xchem-fragalysis-2/maxwin/BulkDock/SCRATCH/511025/C63560-P66

>  <fragmenstein_runtime>  (871) 
47.86993861198425

>  <fragmenstein_outcome>  (871) 
too moved

>  <fragmenstein_mode>  (871) 
expansion

>  <fragmenstein_error>  (871) 


$$$$
C63560-P44
     RDKit          3D

 49 50  0  0  0  0  0  0  0  0999 V2000
    7.1468   -1.7323   14.1337 C   0  0  0  0  0  0  0  0  0  0  0  0
    7.5522   -1.3700   15.4310 O   0  0  0  0  0  0  0  0  0  0  0  0
    8.8301   -0.9822   15.4593 C   0  0  0  0  0  0  0  0  0  0  0  0
    9.9106   -1.7030   14.9910 C   0  0  0  0  0  0  0  0  0  0  0  0
   11.3052   -0.7338   14.8585 S   0  0  0  0  0  0  0  0  0  0  0  0
   10.4531    0.5529   15.5869 C   0  0  0  0  0  0  0  0  0  0  0  0
    9.2221    0.1626   16.1229 C   0  0  0  0  0  0  0  0  0  0  0  0
    8.6094    1.0820   17.0597 C   0  0  0  0  0  0  0  0  0  0  0  0
    8.2106    2.1056   16.5701 O   0  0  0  0  0  0  0  0  0  0  0  0
    8.6752    0.6621   18.4544 N   0  0  0  0  0  0  0  0  0  0  0  0
    8.3944    1.3679   19.6261 C   0  0  0  0  0  0  0  0  0  0  0  0
    7.1802   -0.1936   18.9378 C   0  0  0  0  0  0  0  0  0  0  0  0
    6.5611   -1.2832   20.4504 C   0  0  0  0  0  0  0  0  0  0  0  0
    5.8121   -2.9482   20.6639 N   0  0  0  0  0  0  0  0  0  0  0  0
    5.3437   -3.6541   21.8688 C   0  0  0  0  0  0  0  0  0  0  0  0
    5.2581   -3.2856   23.0075 O   0  0  0  0  0  0  0  0  0  0  0  0
    5.0353   -5.1123   21.4944 C   0  0  0  0  0  0  0  0  0  0  0  0
    5.2631   -6.0803   22.6576 C   0  0  0  0  0  0  0  0  0  0  0  0
    4.1047   -6.1100   23.6580 C   0  0  0  0  0  0  0  0  0  0  0  0
    4.4481   -7.0331   24.8203 C   0  0  0  0  0  0  0  0  0  0  0  0
    5.5132   -6.5324   25.8352 C   0  0  0  0  0  0  0  0  0  0  0  0
    4.6658   -7.1951   26.9395 C   0  0  0  0  0  0  0  0  0  0  0  0
    3.4499   -7.0251   26.0071 C   0  0  0  0  0  0  0  0  0  0  0  0
    6.1158   -2.0798   14.1617 H   0  0  0  0  0  0  0  0  0  0  0  0
    7.2428   -0.9268   13.4076 H   0  0  0  0  0  0  0  0  0  0  0  0
    7.7601   -2.5574   13.8374 H   0  0  0  0  0  0  0  0  0  0  0  0
    9.9444   -2.7087   14.6129 H   0  0  0  0  0  0  0  0  0  0  0  0
   10.9449    1.5066   15.7281 H   0  0  0  0  0  0  0  0  0  0  0  0
    7.5111    1.9670   19.7630 H   0  0  0  0  0  0  0  0  0  0  0  0
    9.0325    2.2617   19.4694 H   0  0  0  0  0  0  0  0  0  0  0  0
    8.9639    0.9072   20.4141 H   0  0  0  0  0  0  0  0  0  0  0  0
    6.5423    0.6281   19.0536 H   0  0  0  0  0  0  0  0  0  0  0  0
    6.6946   -0.4981   18.0061 H   0  0  0  0  0  0  0  0  0  0  0  0
    7.3909   -1.4128   20.9397 H   0  0  0  0  0  0  0  0  0  0  0  0
    5.7174   -0.9256   21.0164 H   0  0  0  0  0  0  0  0  0  0  0  0
    5.8265   -3.5898   19.8884 H   0  0  0  0  0  0  0  0  0  0  0  0
    4.0081   -5.1874   21.1332 H   0  0  0  0  0  0  0  0  0  0  0  0
    5.7023   -5.4226   20.6812 H   0  0  0  0  0  0  0  0  0  0  0  0
    5.3921   -7.0912   22.2498 H   0  0  0  0  0  0  0  0  0  0  0  0
    6.2011   -5.8331   23.1692 H   0  0  0  0  0  0  0  0  0  0  0  0
    3.8816   -5.1040   24.0286 H   0  0  0  0  0  0  0  0  0  0  0  0
    3.1992   -6.4722   23.1569 H   0  0  0  0  0  0  0  0  0  0  0  0
    4.6543   -8.0566   24.4734 H   0  0  0  0  0  0  0  0  0  0  0  0
    6.5201   -6.9377   25.7051 H   0  0  0  0  0  0  0  0  0  0  0  0
    5.5774   -5.4417   25.9265 H   0  0  0  0  0  0  0  0  0  0  0  0
    4.9321   -8.2406   27.1329 H   0  0  0  0  0  0  0  0  0  0  0  0
    4.6163   -6.6572   27.8894 H   0  0  0  0  0  0  0  0  0  0  0  0
    2.7260   -7.8437   26.0212 H   0  0  0  0  0  0  0  0  0  0  0  0
    2.9226   -6.0749   26.1494 H   0  0  0  0  0  0  0  0  0  0  0  0
  1  2  1  0
  2  3  1  0
  3  4  2  0
  4  5  1  0
  5  6  1  0
  6  7  2  0
  7  8  1  0
  8  9  2  0
  8 10  1  0
 10 11  1  0
 10 12  1  0
 12 13  1  0
 13 14  1  0
 14 15  1  0
 15 16  2  0
 15 17  1  0
 17 18  1  0
 18 19  1  0
 19 20  1  0
 20 21  1  0
 21 22  1  0
 22 23  1  0
  7  3  1  0
 23 20  1  0
  1 24  1  0
  1 25  1  0
  1 26  1  0
  4 27  1  0
  6 28  1  0
 11 29  1  0
 11 30  1  0
 11 31  1  0
 12 32  1  0
 12 33  1  0
 13 34  1  0
 13 35  1  0
 14 36  1  0
 17 37  1  0
 17 38  1  0
 18 39  1  0
 18 40  1  0
 19 41  1  0
 19 42  1  0
 20 43  1  0
 21 44  1  0
 21 45  1  0
 22 46  1  0
 22 47  1  0
 23 48  1  0
 23 49  1  0
M  END
>  <Energy>  (872) 
260.15532632312221

>  <compound_id>  (872) 
63560

>  <target_id>  (872) 
1

>  <reference_id>  (872) 
44

>  <inspiration_ids>  (872) 
[66, 44]

>  <energy_score>  (872) 
202.21835980286073

>  <distance_score>  (872) 
8.005588496777206

>  <path>  (872) 
/opt/xchem-fragalysis-2/maxwin/BulkDock/SCRATCH/511025/C63560-P44/C63560-P44.minimised.mol

>  <scratch_subdir>  (872) 
/opt/xchem-fragalysis-2/maxwin/BulkDock/SCRATCH/511025/C63560-P44

>  <fragmenstein_runtime>  (872) 
33.424434185028076

>  <fragmenstein_outcome>  (872) 
too moved

>  <fragmenstein_mode>  (872) 
expansion

>  <fragmenstein_error>  (872) 


$$$$
C63561-P66
     RDKit          3D

 46 47  0  0  0  0  0  0  0  0999 V2000
    7.8933    1.3674   20.5387 C   0  0  0  0  0  0  0  0  0  0  0  0
    7.2556    0.8185   19.3820 N   0  0  0  0  0  0  0  0  0  0  0  0
    6.2502   -0.1187   20.8046 C   0  0  0  0  0  0  0  0  0  0  0  0
    5.5504   -1.5730   22.0419 C   0  0  0  0  0  0  0  0  0  0  0  0
    4.7085   -1.2605   23.6862 N   0  0  0  0  0  0  0  0  0  0  0  0
    4.0359   -2.1320   24.5839 C   0  0  0  0  0  0  0  0  0  0  0  0
    3.8990   -3.3067   24.5660 O   0  0  0  0  0  0  0  0  0  0  0  0
    3.4883   -1.3146   25.7853 C   0  0  0  0  0  0  0  0  0  0  0  0
    4.2917   -1.2444   27.0880 C   0  0  0  0  0  0  0  0  0  0  0  0
    5.4287   -0.2213   27.1086 C   0  0  0  0  0  0  0  0  0  0  0  0
    6.7871   -0.8755   26.9079 C   0  0  0  0  0  0  0  0  0  0  0  0
    8.0127    0.0732   27.0007 C   0  0  0  0  0  0  0  0  0  0  0  0
    8.7753   -1.0978   27.6531 C   0  0  0  0  0  0  0  0  0  0  0  0
    7.4052   -1.6356   28.1143 C   0  0  0  0  0  0  0  0  0  0  0  0
    7.7659   -0.1882   18.2415 C   0  0  0  0  0  0  0  0  0  0  0  0
    8.8070   -0.6365   18.4225 O   0  0  0  0  0  0  0  0  0  0  0  0
    7.1634   -0.6892   16.5089 C   0  0  0  0  0  0  0  0  0  0  0  0
    6.9936   -0.9917   15.0693 C   0  0  0  0  0  0  0  0  0  0  0  0
    7.9282   -0.7498   14.0499 C   0  0  0  0  0  0  0  0  0  0  0  0
    7.9219   -2.4359   14.4158 S   0  0  0  0  0  0  0  0  0  0  0  0
    8.4923   -1.6254   15.7949 C   0  0  0  0  0  0  0  0  0  0  0  0
   10.0152   -1.9083   15.7809 C   0  0  0  0  0  0  0  0  0  0  0  0
   11.1360   -2.2171   15.6881 N   0  0  0  0  0  0  0  0  0  0  0  0
    8.8388    0.8695   20.8203 H   0  0  0  0  0  0  0  0  0  0  0  0
    8.4484    2.1717   20.0174 H   0  0  0  0  0  0  0  0  0  0  0  0
    7.4285    2.1400   21.1304 H   0  0  0  0  0  0  0  0  0  0  0  0
    6.2129    0.7385   21.4774 H   0  0  0  0  0  0  0  0  0  0  0  0
    5.2150    0.2534   20.9182 H   0  0  0  0  0  0  0  0  0  0  0  0
    4.6539   -1.0654   21.8431 H   0  0  0  0  0  0  0  0  0  0  0  0
    5.5399   -2.5652   21.6119 H   0  0  0  0  0  0  0  0  0  0  0  0
    4.5430   -0.2983   23.9745 H   0  0  0  0  0  0  0  0  0  0  0  0
    3.2319   -0.2978   25.4735 H   0  0  0  0  0  0  0  0  0  0  0  0
    2.5379   -1.7824   26.0546 H   0  0  0  0  0  0  0  0  0  0  0  0
    3.5767   -0.9218   27.8584 H   0  0  0  0  0  0  0  0  0  0  0  0
    4.6263   -2.2324   27.4087 H   0  0  0  0  0  0  0  0  0  0  0  0
    5.4194    0.2916   28.0791 H   0  0  0  0  0  0  0  0  0  0  0  0
    5.2608    0.5557   26.3571 H   0  0  0  0  0  0  0  0  0  0  0  0
    6.8221   -1.4706   25.9889 H   0  0  0  0  0  0  0  0  0  0  0  0
    8.4141    0.4247   26.0466 H   0  0  0  0  0  0  0  0  0  0  0  0
    7.8752    0.9328   27.6672 H   0  0  0  0  0  0  0  0  0  0  0  0
    9.4739   -0.8278   28.4486 H   0  0  0  0  0  0  0  0  0  0  0  0
    9.2850   -1.7481   26.9327 H   0  0  0  0  0  0  0  0  0  0  0  0
    7.0948   -1.2606   29.0967 H   0  0  0  0  0  0  0  0  0  0  0  0
    7.2984   -2.7231   28.1011 H   0  0  0  0  0  0  0  0  0  0  0  0
    6.0873   -1.3660   14.5110 H   0  0  0  0  0  0  0  0  0  0  0  0
    8.8128   -0.1198   13.9732 H   0  0  0  0  0  0  0  0  0  0  0  0
  1  2  1  0
  2  3  1  0
  3  4  1  0
  4  5  1  0
  5  6  1  0
  6  7  2  0
  6  8  1  0
  8  9  1  0
  9 10  1  0
 10 11  1  0
 11 12  1  0
 12 13  1  0
 13 14  1  0
  2 15  1  0
 15 16  2  0
 15 17  1  0
 17 18  1  0
 18 19  2  0
 19 20  1  0
 20 21  1  0
 21 22  1  0
 22 23  3  0
 14 11  1  0
 21 17  2  0
  1 24  1  0
  1 25  1  0
  1 26  1  0
  3 27  1  0
  3 28  1  0
  4 29  1  0
  4 30  1  0
  5 31  1  0
  8 32  1  0
  8 33  1  0
  9 34  1  0
  9 35  1  0
 10 36  1  0
 10 37  1  0
 11 38  1  0
 12 39  1  0
 12 40  1  0
 13 41  1  0
 13 42  1  0
 14 43  1  0
 14 44  1  0
 18 45  1  0
 19 46  1  0
M  END
>  <Energy>  (873) 
744.99715339326053

>  <compound_id>  (873) 
63561

>  <target_id>  (873) 
1

>  <reference_id>  (873) 
66

>  <inspiration_ids>  (873) 
[66, 44]

>  <energy_score>  (873) 
702.1117461297679

>  <distance_score>  (873) 
6.756174973494216

>  <path>  (873) 
/opt/xchem-fragalysis-2/maxwin/BulkDock/SCRATCH/511025/C63561-P66/C63561-P66.minimised.mol

>  <scratch_subdir>  (873) 
/opt/xchem-fragalysis-2/maxwin/BulkDock/SCRATCH/511025/C63561-P66

>  <fragmenstein_runtime>  (873) 
25.035224676132202

>  <fragmenstein_outcome>  (873) 
too moved

>  <fragmenstein_mode>  (873) 
expansion

>  <fragmenstein_error>  (873) 


$$$$
C63561-P44
     RDKit          3D

 46 47  0  0  0  0  0  0  0  0999 V2000
   12.8911    1.5699   12.1409 C   0  0  0  0  0  0  0  0  0  0  0  0
   12.7393    0.5164   13.1822 N   0  0  0  0  0  0  0  0  0  0  0  0
   11.6727    1.5203   13.6672 C   0  0  0  0  0  0  0  0  0  0  0  0
   12.0865    2.8522   14.3645 C   0  0  0  0  0  0  0  0  0  0  0  0
   11.0760    3.3269   15.2775 N   0  0  0  0  0  0  0  0  0  0  0  0
    9.7514    4.0831   15.0067 C   0  0  0  0  0  0  0  0  0  0  0  0
    9.2378    4.3697   14.0004 O   0  0  0  0  0  0  0  0  0  0  0  0
    9.1634    4.3716   16.3878 C   0  0  0  0  0  0  0  0  0  0  0  0
    7.7934    5.0410   16.3092 C   0  0  0  0  0  0  0  0  0  0  0  0
    7.2482    5.3435   17.7055 C   0  0  0  0  0  0  0  0  0  0  0  0
    5.8327    5.9157   17.6175 C   0  0  0  0  0  0  0  0  0  0  0  0
    5.6896    7.3945   17.1675 C   0  0  0  0  0  0  0  0  0  0  0  0
    5.6705    7.7912   18.6557 C   0  0  0  0  0  0  0  0  0  0  0  0
    5.2154    6.3544   18.9717 C   0  0  0  0  0  0  0  0  0  0  0  0
   13.6566    0.1079   14.3075 C   0  0  0  0  0  0  0  0  0  0  0  0
   14.6679    0.5795   14.6720 O   0  0  0  0  0  0  0  0  0  0  0  0
   13.1589   -1.1510   14.9245 C   0  0  0  0  0  0  0  0  0  0  0  0
   11.9771   -1.8794   14.5271 C   0  0  0  0  0  0  0  0  0  0  0  0
   11.7803   -3.0409   15.2333 C   0  0  0  0  0  0  0  0  0  0  0  0
   12.9771   -3.2678   16.4158 S   0  0  0  0  0  0  0  0  0  0  0  0
   13.7997   -1.8310   15.9564 C   0  0  0  0  0  0  0  0  0  0  0  0
   15.0167   -1.4729   16.6181 C   0  0  0  0  0  0  0  0  0  0  0  0
   16.0007   -1.2523   17.1926 N   0  0  0  0  0  0  0  0  0  0  0  0
   13.5943    1.0941   11.4392 H   0  0  0  0  0  0  0  0  0  0  0  0
   12.0277    1.7815   11.4929 H   0  0  0  0  0  0  0  0  0  0  0  0
   13.4772    2.4407   12.4588 H   0  0  0  0  0  0  0  0  0  0  0  0
   11.1993    0.9457   14.4807 H   0  0  0  0  0  0  0  0  0  0  0  0
   10.8136    1.6322   12.9817 H   0  0  0  0  0  0  0  0  0  0  0  0
   13.0208    2.7497   14.9153 H   0  0  0  0  0  0  0  0  0  0  0  0
   12.2100    3.6459   13.6206 H   0  0  0  0  0  0  0  0  0  0  0  0
   11.1834    3.1760   16.2807 H   0  0  0  0  0  0  0  0  0  0  0  0
    9.0735    3.4240   16.9324 H   0  0  0  0  0  0  0  0  0  0  0  0
    9.8638    5.0202   16.9272 H   0  0  0  0  0  0  0  0  0  0  0  0
    7.0954    4.3881   15.7701 H   0  0  0  0  0  0  0  0  0  0  0  0
    7.8630    5.9665   15.7251 H   0  0  0  0  0  0  0  0  0  0  0  0
    7.9205    6.0365   18.2252 H   0  0  0  0  0  0  0  0  0  0  0  0
    7.2272    4.4183   18.2937 H   0  0  0  0  0  0  0  0  0  0  0  0
    5.1757    5.2303   17.0660 H   0  0  0  0  0  0  0  0  0  0  0  0
    6.5111    7.8148   16.5819 H   0  0  0  0  0  0  0  0  0  0  0  0
    4.7463    7.6017   16.6483 H   0  0  0  0  0  0  0  0  0  0  0  0
    4.9665    8.5821   18.9267 H   0  0  0  0  0  0  0  0  0  0  0  0
    6.6580    8.0413   19.0597 H   0  0  0  0  0  0  0  0  0  0  0  0
    4.1256    6.2398   19.0110 H   0  0  0  0  0  0  0  0  0  0  0  0
    5.6467    5.9103   19.8728 H   0  0  0  0  0  0  0  0  0  0  0  0
   11.3139   -1.5721   13.7288 H   0  0  0  0  0  0  0  0  0  0  0  0
   10.9912   -3.7678   15.1041 H   0  0  0  0  0  0  0  0  0  0  0  0
  1  2  1  0
  2  3  1  0
  3  4  1  0
  4  5  1  0
  5  6  1  0
  6  7  2  0
  6  8  1  0
  8  9  1  0
  9 10  1  0
 10 11  1  0
 11 12  1  0
 12 13  1  0
 13 14  1  0
  2 15  1  0
 15 16  2  0
 15 17  1  0
 17 18  1  0
 18 19  2  0
 19 20  1  0
 20 21  1  0
 21 22  1  0
 22 23  3  0
 14 11  1  0
 21 17  2  0
  1 24  1  0
  1 25  1  0
  1 26  1  0
  3 27  1  0
  3 28  1  0
  4 29  1  0
  4 30  1  0
  5 31  1  0
  8 32  1  0
  8 33  1  0
  9 34  1  0
  9 35  1  0
 10 36  1  0
 10 37  1  0
 11 38  1  0
 12 39  1  0
 12 40  1  0
 13 41  1  0
 13 42  1  0
 14 43  1  0
 14 44  1  0
 18 45  1  0
 19 46  1  0
M  END
>  <Energy>  (874) 
100.67034008446241

>  <compound_id>  (874) 
63561

>  <target_id>  (874) 
1

>  <reference_id>  (874) 
44

>  <inspiration_ids>  (874) 
[66, 44]

>  <energy_score>  (874) 
63.95835690636267

>  <distance_score>  (874) 
12.44265582367478

>  <path>  (874) 
/opt/xchem-fragalysis-2/maxwin/BulkDock/SCRATCH/511025/C63561-P44/C63561-P44.minimised.mol

>  <scratch_subdir>  (874) 
/opt/xchem-fragalysis-2/maxwin/BulkDock/SCRATCH/511025/C63561-P44

>  <fragmenstein_runtime>  (874) 
28.8628146648407

>  <fragmenstein_outcome>  (874) 
too moved

>  <fragmenstein_mode>  (874) 
expansion

>  <fragmenstein_error>  (874) 


$$$$
C63562-P66
     RDKit          3D

 51 52  0  0  0  0  0  0  0  0999 V2000
   11.1626    4.5354   21.0521 C   0  0  0  0  0  0  0  0  0  0  0  0
   10.9749    3.5410   19.9147 C   0  0  0  0  0  0  0  0  0  0  0  0
   10.3885    4.1815   18.6885 C   0  0  0  0  0  0  0  0  0  0  0  0
   11.2133    4.7959   17.7588 C   0  0  0  0  0  0  0  0  0  0  0  0
   10.3912    5.3173   16.3697 S   0  0  0  0  0  0  0  0  0  0  0  0
    8.9003    4.7945   16.9981 C   0  0  0  0  0  0  0  0  0  0  0  0
    8.9892    4.1771   18.2403 C   0  0  0  0  0  0  0  0  0  0  0  0
    7.7961    3.4117   18.7493 C   0  0  0  0  0  0  0  0  0  0  0  0
    6.8765    3.2752   17.9890 O   0  0  0  0  0  0  0  0  0  0  0  0
    8.0076    2.8776   20.0658 N   0  0  0  0  0  0  0  0  0  0  0  0
    7.4756    3.8207   21.0899 C   0  0  0  0  0  0  0  0  0  0  0  0
    7.1374    1.8008   20.9416 C   0  0  0  0  0  0  0  0  0  0  0  0
    5.4251    0.6947   21.4322 C   0  0  0  0  0  0  0  0  0  0  0  0
    4.0133    1.3377   22.3803 N   0  0  0  0  0  0  0  0  0  0  0  0
    2.6282    2.1225   21.8953 C   0  0  0  0  0  0  0  0  0  0  0  0
    2.2043    2.3615   20.7753 O   0  0  0  0  0  0  0  0  0  0  0  0
    1.9359    2.6711   23.2083 C   0  0  0  0  0  0  0  0  0  0  0  0
    0.6552    3.4947   22.9509 C   0  0  0  0  0  0  0  0  0  0  0  0
    0.0442    3.9697   24.2695 C   0  0  0  0  0  0  0  0  0  0  0  0
   -1.2670    4.7338   24.1134 C   0  0  0  0  0  0  0  0  0  0  0  0
   -1.4325    5.8420   23.0365 C   0  0  0  0  0  0  0  0  0  0  0  0
   -2.9183    5.4312   22.9531 C   0  0  0  0  0  0  0  0  0  0  0  0
   -2.4919    4.0377   23.4617 C   0  0  0  0  0  0  0  0  0  0  0  0
   10.2140    4.9949   21.3446 H   0  0  0  0  0  0  0  0  0  0  0  0
   11.5824    4.0323   21.9289 H   0  0  0  0  0  0  0  0  0  0  0  0
   11.8476    5.3404   20.7645 H   0  0  0  0  0  0  0  0  0  0  0  0
   11.9545    3.1141   19.6627 H   0  0  0  0  0  0  0  0  0  0  0  0
   10.3778    2.7001   20.2672 H   0  0  0  0  0  0  0  0  0  0  0  0
   12.2846    4.9294   17.8231 H   0  0  0  0  0  0  0  0  0  0  0  0
    8.0065    4.8953   16.3951 H   0  0  0  0  0  0  0  0  0  0  0  0
    7.8276    4.8175   20.7822 H   0  0  0  0  0  0  0  0  0  0  0  0
    6.3912    3.9581   21.1029 H   0  0  0  0  0  0  0  0  0  0  0  0
    7.9409    3.7051   22.0780 H   0  0  0  0  0  0  0  0  0  0  0  0
    7.8913    1.7737   21.7511 H   0  0  0  0  0  0  0  0  0  0  0  0
    7.4837    1.0214   20.2050 H   0  0  0  0  0  0  0  0  0  0  0  0
    4.6358    0.5448   20.8555 H   0  0  0  0  0  0  0  0  0  0  0  0
    5.7813   -0.3711   21.3438 H   0  0  0  0  0  0  0  0  0  0  0  0
    4.0147    1.2386   23.3874 H   0  0  0  0  0  0  0  0  0  0  0  0
    1.9008    1.9748   24.0486 H   0  0  0  0  0  0  0  0  0  0  0  0
    2.6274    3.4433   23.5692 H   0  0  0  0  0  0  0  0  0  0  0  0
    0.9222    4.3603   22.3323 H   0  0  0  0  0  0  0  0  0  0  0  0
   -0.0790    2.9352   22.3650 H   0  0  0  0  0  0  0  0  0  0  0  0
   -0.1275    3.1067   24.9246 H   0  0  0  0  0  0  0  0  0  0  0  0
    0.7690    4.6132   24.7835 H   0  0  0  0  0  0  0  0  0  0  0  0
   -1.5384    5.1215   25.1096 H   0  0  0  0  0  0  0  0  0  0  0  0
   -0.8920    5.6769   22.0989 H   0  0  0  0  0  0  0  0  0  0  0  0
   -1.2436    6.8634   23.3771 H   0  0  0  0  0  0  0  0  0  0  0  0
   -3.5665    5.9759   23.6486 H   0  0  0  0  0  0  0  0  0  0  0  0
   -3.3639    5.4572   21.9557 H   0  0  0  0  0  0  0  0  0  0  0  0
   -3.1838    3.5615   24.1611 H   0  0  0  0  0  0  0  0  0  0  0  0
   -2.2618    3.3332   22.6561 H   0  0  0  0  0  0  0  0  0  0  0  0
  1  2  1  0
  2  3  1  0
  3  4  2  0
  4  5  1  0
  5  6  1  0
  6  7  2  0
  7  8  1  0
  8  9  2  0
  8 10  1  0
 10 11  1  0
 10 12  1  0
 12 13  1  0
 13 14  1  0
 14 15  1  0
 15 16  2  0
 15 17  1  0
 17 18  1  0
 18 19  1  0
 19 20  1  0
 20 21  1  0
 21 22  1  0
 22 23  1  0
  7  3  1  0
 23 20  1  0
  1 24  1  0
  1 25  1  0
  1 26  1  0
  2 27  1  0
  2 28  1  0
  4 29  1  0
  6 30  1  0
 11 31  1  0
 11 32  1  0
 11 33  1  0
 12 34  1  0
 12 35  1  0
 13 36  1  0
 13 37  1  0
 14 38  1  0
 17 39  1  0
 17 40  1  0
 18 41  1  0
 18 42  1  0
 19 43  1  0
 19 44  1  0
 20 45  1  0
 21 46  1  0
 21 47  1  0
 22 48  1  0
 22 49  1  0
 23 50  1  0
 23 51  1  0
M  END
>  <Energy>  (875) 
313.34905078703002

>  <compound_id>  (875) 
63562

>  <target_id>  (875) 
1

>  <reference_id>  (875) 
66

>  <inspiration_ids>  (875) 
[66, 44]

>  <energy_score>  (875) 
259.73439312935966

>  <distance_score>  (875) 
8.002074036701035

>  <path>  (875) 
/opt/xchem-fragalysis-2/maxwin/BulkDock/SCRATCH/511025/C63562-P66/C63562-P66.minimised.mol

>  <scratch_subdir>  (875) 
/opt/xchem-fragalysis-2/maxwin/BulkDock/SCRATCH/511025/C63562-P66

>  <fragmenstein_runtime>  (875) 
20.33769726753235

>  <fragmenstein_outcome>  (875) 
too moved

>  <fragmenstein_mode>  (875) 
expansion

>  <fragmenstein_error>  (875) 


$$$$
C63562-P44
     RDKit          3D

 51 52  0  0  0  0  0  0  0  0999 V2000
    8.3702    3.8729   15.7894 C   0  0  0  0  0  0  0  0  0  0  0  0
    9.5989    3.3761   16.5225 C   0  0  0  0  0  0  0  0  0  0  0  0
   10.0049    1.9780   16.1571 C   0  0  0  0  0  0  0  0  0  0  0  0
   11.0047    1.7738   15.2105 C   0  0  0  0  0  0  0  0  0  0  0  0
   11.2467    0.1458   14.8032 S   0  0  0  0  0  0  0  0  0  0  0  0
    9.9934   -0.3152   15.8571 C   0  0  0  0  0  0  0  0  0  0  0  0
    9.4560    0.7147   16.6454 C   0  0  0  0  0  0  0  0  0  0  0  0
    8.1621    0.4057   17.3173 C   0  0  0  0  0  0  0  0  0  0  0  0
    7.3524    0.0436   16.4959 O   0  0  0  0  0  0  0  0  0  0  0  0
    7.9952    0.6746   18.8611 N   0  0  0  0  0  0  0  0  0  0  0  0
    7.6526    2.0626   19.0862 C   0  0  0  0  0  0  0  0  0  0  0  0
    6.5374    0.3928   19.9703 C   0  0  0  0  0  0  0  0  0  0  0  0
    4.7609    0.7875   21.1264 C   0  0  0  0  0  0  0  0  0  0  0  0
    4.4120    1.6575   22.7044 N   0  0  0  0  0  0  0  0  0  0  0  0
    4.5181    1.1864   24.1380 C   0  0  0  0  0  0  0  0  0  0  0  0
    4.9360    0.1533   24.5939 O   0  0  0  0  0  0  0  0  0  0  0  0
    3.9829    2.3197   25.0180 C   0  0  0  0  0  0  0  0  0  0  0  0
    4.1658    2.0685   26.5137 C   0  0  0  0  0  0  0  0  0  0  0  0
    5.6217    2.2407   26.9579 C   0  0  0  0  0  0  0  0  0  0  0  0
    5.7502    1.9973   28.4557 C   0  0  0  0  0  0  0  0  0  0  0  0
    5.2013    3.0930   29.4100 C   0  0  0  0  0  0  0  0  0  0  0  0
    6.4067    2.7970   30.3249 C   0  0  0  0  0  0  0  0  0  0  0  0
    7.1454    2.2937   29.0682 C   0  0  0  0  0  0  0  0  0  0  0  0
    8.0687    4.8523   16.1742 H   0  0  0  0  0  0  0  0  0  0  0  0
    7.5248    3.1888   15.8999 H   0  0  0  0  0  0  0  0  0  0  0  0
    8.5898    3.9916   14.7245 H   0  0  0  0  0  0  0  0  0  0  0  0
    9.4506    3.4759   17.5936 H   0  0  0  0  0  0  0  0  0  0  0  0
   10.4233    4.0652   16.2930 H   0  0  0  0  0  0  0  0  0  0  0  0
   11.5850    2.5342   14.7057 H   0  0  0  0  0  0  0  0  0  0  0  0
    9.6610   -1.3399   15.8046 H   0  0  0  0  0  0  0  0  0  0  0  0
    7.3991    2.3725   20.0735 H   0  0  0  0  0  0  0  0  0  0  0  0
    8.6475    2.5206   19.0576 H   0  0  0  0  0  0  0  0  0  0  0  0
    7.1514    2.5928   18.2812 H   0  0  0  0  0  0  0  0  0  0  0  0
    6.1174    0.4237   18.9670 H   0  0  0  0  0  0  0  0  0  0  0  0
    6.8471   -0.6492   20.1874 H   0  0  0  0  0  0  0  0  0  0  0  0
    3.7302    1.0247   20.9600 H   0  0  0  0  0  0  0  0  0  0  0  0
    4.6391   -0.2369   21.5953 H   0  0  0  0  0  0  0  0  0  0  0  0
    3.9205    2.5667   22.6816 H   0  0  0  0  0  0  0  0  0  0  0  0
    2.9122    2.4179   24.8050 H   0  0  0  0  0  0  0  0  0  0  0  0
    4.4713    3.2595   24.7351 H   0  0  0  0  0  0  0  0  0  0  0  0
    3.5381    2.7800   27.0641 H   0  0  0  0  0  0  0  0  0  0  0  0
    3.8080    1.0666   26.7806 H   0  0  0  0  0  0  0  0  0  0  0  0
    6.2660    1.5341   26.4230 H   0  0  0  0  0  0  0  0  0  0  0  0
    5.9708    3.2483   26.7014 H   0  0  0  0  0  0  0  0  0  0  0  0
    5.3965    0.9924   28.7300 H   0  0  0  0  0  0  0  0  0  0  0  0
    5.2078    4.1062   28.9911 H   0  0  0  0  0  0  0  0  0  0  0  0
    4.2183    2.8945   29.8448 H   0  0  0  0  0  0  0  0  0  0  0  0
    6.2153    2.0140   31.0676 H   0  0  0  0  0  0  0  0  0  0  0  0
    6.8502    3.6622   30.8237 H   0  0  0  0  0  0  0  0  0  0  0  0
    7.7135    3.0767   28.5521 H   0  0  0  0  0  0  0  0  0  0  0  0
    7.7925    1.4253   29.2163 H   0  0  0  0  0  0  0  0  0  0  0  0
  1  2  1  0
  2  3  1  0
  3  4  2  0
  4  5  1  0
  5  6  1  0
  6  7  2  0
  7  8  1  0
  8  9  2  0
  8 10  1  0
 10 11  1  0
 10 12  1  0
 12 13  1  0
 13 14  1  0
 14 15  1  0
 15 16  2  0
 15 17  1  0
 17 18  1  0
 18 19  1  0
 19 20  1  0
 20 21  1  0
 21 22  1  0
 22 23  1  0
  7  3  1  0
 23 20  1  0
  1 24  1  0
  1 25  1  0
  1 26  1  0
  2 27  1  0
  2 28  1  0
  4 29  1  0
  6 30  1  0
 11 31  1  0
 11 32  1  0
 11 33  1  0
 12 34  1  0
 12 35  1  0
 13 36  1  0
 13 37  1  0
 14 38  1  0
 17 39  1  0
 17 40  1  0
 18 41  1  0
 18 42  1  0
 19 43  1  0
 19 44  1  0
 20 45  1  0
 21 46  1  0
 21 47  1  0
 22 48  1  0
 22 49  1  0
 23 50  1  0
 23 51  1  0
M  END
>  <Energy>  (876) 
386.89375281714337

>  <compound_id>  (876) 
63562

>  <target_id>  (876) 
1

>  <reference_id>  (876) 
44

>  <inspiration_ids>  (876) 
[66, 44]

>  <energy_score>  (876) 
333.2790951594735

>  <distance_score>  (876) 
6.549924168684941

>  <path>  (876) 
/opt/xchem-fragalysis-2/maxwin/BulkDock/SCRATCH/511025/C63562-P44/C63562-P44.minimised.mol

>  <scratch_subdir>  (876) 
/opt/xchem-fragalysis-2/maxwin/BulkDock/SCRATCH/511025/C63562-P44

>  <fragmenstein_runtime>  (876) 
17.03205370903015

>  <fragmenstein_outcome>  (876) 
too moved

>  <fragmenstein_mode>  (876) 
expansion

>  <fragmenstein_error>  (876) 


$$$$
C63563-P66
     RDKit          3D

 54 55  0  0  0  0  0  0  0  0999 V2000
   11.1806    2.0373   13.1778 C   0  0  0  0  0  0  0  0  0  0  0  0
   10.8294    1.3634   14.4997 C   0  0  0  0  0  0  0  0  0  0  0  0
   11.1047   -0.1264   14.5405 C   0  0  0  0  0  0  0  0  0  0  0  0
   12.2790   -0.6255   14.0119 C   0  0  0  0  0  0  0  0  0  0  0  0
   12.2514   -2.2955   13.8647 S   0  0  0  0  0  0  0  0  0  0  0  0
   10.6893   -2.4081   14.5541 C   0  0  0  0  0  0  0  0  0  0  0  0
   10.2488   -1.2372   15.2167 C   0  0  0  0  0  0  0  0  0  0  0  0
   10.3104   -1.7959   16.7978 C   0  0  0  0  0  0  0  0  0  0  0  0
   11.3839   -2.3375   16.9715 O   0  0  0  0  0  0  0  0  0  0  0  0
    8.8339   -1.8245   18.2066 N   0  0  0  0  0  0  0  0  0  0  0  0
    8.8203   -2.8774   19.9521 C   0  0  0  0  0  0  0  0  0  0  0  0
    8.3869   -0.6103   19.6516 C   0  0  0  0  0  0  0  0  0  0  0  0
    6.6969   -0.9104   20.8453 C   0  0  0  0  0  0  0  0  0  0  0  0
    5.5750   -1.9589   22.0957 N   0  0  0  0  0  0  0  0  0  0  0  0
    4.6832   -1.4884   23.6211 C   0  0  0  0  0  0  0  0  0  0  0  0
    4.6143   -0.4110   24.1982 O   0  0  0  0  0  0  0  0  0  0  0  0
    3.8138   -2.4991   24.3447 C   0  0  0  0  0  0  0  0  0  0  0  0
    3.6575   -1.9612   25.9305 C   0  0  0  0  0  0  0  0  0  0  0  0
    2.6242   -1.0612   26.6436 C   0  0  0  0  0  0  0  0  0  0  0  0
    2.7775    0.4637   26.6235 C   0  0  0  0  0  0  0  0  0  0  0  0
    1.5896    1.1631   27.3111 C   0  0  0  0  0  0  0  0  0  0  0  0
    2.0752    2.5910   27.4897 C   0  0  0  0  0  0  0  0  0  0  0  0
    3.5757    2.4651   27.7412 C   0  0  0  0  0  0  0  0  0  0  0  0
    3.9500    1.0102   27.4357 C   0  0  0  0  0  0  0  0  0  0  0  0
   10.7003    1.5321   12.3377 H   0  0  0  0  0  0  0  0  0  0  0  0
   12.2604    2.0408   12.9991 H   0  0  0  0  0  0  0  0  0  0  0  0
   10.8455    3.0796   13.1864 H   0  0  0  0  0  0  0  0  0  0  0  0
   11.3930    1.8591   15.2973 H   0  0  0  0  0  0  0  0  0  0  0  0
    9.7690    1.5535   14.6737 H   0  0  0  0  0  0  0  0  0  0  0  0
   13.1141   -0.0736   13.6056 H   0  0  0  0  0  0  0  0  0  0  0  0
   10.3837   -3.4181   14.7769 H   0  0  0  0  0  0  0  0  0  0  0  0
    8.6616   -3.9996   19.7933 H   0  0  0  0  0  0  0  0  0  0  0  0
    9.8210   -3.1520   20.2424 H   0  0  0  0  0  0  0  0  0  0  0  0
    8.0955   -2.8676   20.8100 H   0  0  0  0  0  0  0  0  0  0  0  0
    9.1790    0.0155   20.0749 H   0  0  0  0  0  0  0  0  0  0  0  0
    7.8451    0.0819   18.9945 H   0  0  0  0  0  0  0  0  0  0  0  0
    6.5131   -1.8151   20.3897 H   0  0  0  0  0  0  0  0  0  0  0  0
    6.1330   -0.0135   20.8485 H   0  0  0  0  0  0  0  0  0  0  0  0
    5.3687   -2.8858   21.8423 H   0  0  0  0  0  0  0  0  0  0  0  0
    2.8878   -2.5911   23.8095 H   0  0  0  0  0  0  0  0  0  0  0  0
    4.2050   -3.4526   24.5912 H   0  0  0  0  0  0  0  0  0  0  0  0
    3.5139   -2.8865   26.4856 H   0  0  0  0  0  0  0  0  0  0  0  0
    4.6461   -1.5996   26.2463 H   0  0  0  0  0  0  0  0  0  0  0  0
    2.6917   -1.3431   27.7073 H   0  0  0  0  0  0  0  0  0  0  0  0
    1.6137   -1.3601   26.4001 H   0  0  0  0  0  0  0  0  0  0  0  0
    2.8733    0.8310   25.5974 H   0  0  0  0  0  0  0  0  0  0  0  0
    0.6620    1.1262   26.7359 H   0  0  0  0  0  0  0  0  0  0  0  0
    1.3900    0.7112   28.2911 H   0  0  0  0  0  0  0  0  0  0  0  0
    1.5597    3.1030   28.3077 H   0  0  0  0  0  0  0  0  0  0  0  0
    1.9008    3.1659   26.5725 H   0  0  0  0  0  0  0  0  0  0  0  0
    3.8286    2.7147   28.7772 H   0  0  0  0  0  0  0  0  0  0  0  0
    4.1280    3.1565   27.0954 H   0  0  0  0  0  0  0  0  0  0  0  0
    4.0665    0.4590   28.3768 H   0  0  0  0  0  0  0  0  0  0  0  0
    4.8985    0.9395   26.8943 H   0  0  0  0  0  0  0  0  0  0  0  0
  1  2  1  0
  2  3  1  0
  3  4  2  0
  4  5  1  0
  5  6  1  0
  6  7  2  0
  7  8  1  0
  8  9  2  0
  8 10  1  0
 10 11  1  0
 10 12  1  0
 12 13  1  0
 13 14  1  0
 14 15  1  0
 15 16  2  0
 15 17  1  0
 17 18  1  0
 18 19  1  0
 19 20  1  0
 20 21  1  0
 21 22  1  0
 22 23  1  0
 23 24  1  0
  7  3  1  0
 24 20  1  0
  1 25  1  0
  1 26  1  0
  1 27  1  0
  2 28  1  0
  2 29  1  0
  4 30  1  0
  6 31  1  0
 11 32  1  0
 11 33  1  0
 11 34  1  0
 12 35  1  0
 12 36  1  0
 13 37  1  0
 13 38  1  0
 14 39  1  0
 17 40  1  0
 17 41  1  0
 18 42  1  0
 18 43  1  0
 19 44  1  0
 19 45  1  0
 20 46  1  0
 21 47  1  0
 21 48  1  0
 22 49  1  0
 22 50  1  0
 23 51  1  0
 23 52  1  0
 24 53  1  0
 24 54  1  0
M  END
>  <Energy>  (877) 
794.86891165396139

>  <compound_id>  (877) 
63563

>  <target_id>  (877) 
1

>  <reference_id>  (877) 
66

>  <inspiration_ids>  (877) 
[66, 44]

>  <energy_score>  (877) 
727.2060049469968

>  <distance_score>  (877) 
4.453519277426385

>  <path>  (877) 
/opt/xchem-fragalysis-2/maxwin/BulkDock/SCRATCH/511025/C63563-P66/C63563-P66.minimised.mol

>  <scratch_subdir>  (877) 
/opt/xchem-fragalysis-2/maxwin/BulkDock/SCRATCH/511025/C63563-P66

>  <fragmenstein_runtime>  (877) 
11.463521957397461

>  <fragmenstein_outcome>  (877) 
too moved

>  <fragmenstein_mode>  (877) 
expansion

>  <fragmenstein_error>  (877) 


$$$$
C63563-P44
     RDKit          3D

 54 55  0  0  0  0  0  0  0  0999 V2000
   16.0488   -1.4200   19.1377 C   0  0  0  0  0  0  0  0  0  0  0  0
   14.9206   -2.3047   19.6529 C   0  0  0  0  0  0  0  0  0  0  0  0
   13.9805   -2.8661   18.6103 C   0  0  0  0  0  0  0  0  0  0  0  0
   14.0541   -2.5353   17.2662 C   0  0  0  0  0  0  0  0  0  0  0  0
   12.9062   -3.3323   16.3148 S   0  0  0  0  0  0  0  0  0  0  0  0
   12.3114   -4.1619   17.6760 C   0  0  0  0  0  0  0  0  0  0  0  0
   12.8818   -3.8405   18.8971 C   0  0  0  0  0  0  0  0  0  0  0  0
   12.6004   -4.4602   20.3220 C   0  0  0  0  0  0  0  0  0  0  0  0
   13.2319   -3.8813   21.1704 O   0  0  0  0  0  0  0  0  0  0  0  0
   11.7408   -5.6739   20.4241 N   0  0  0  0  0  0  0  0  0  0  0  0
   11.5060   -6.5678   21.5412 C   0  0  0  0  0  0  0  0  0  0  0  0
    9.9597   -5.2175   20.7969 C   0  0  0  0  0  0  0  0  0  0  0  0
    7.9505   -4.4266   20.9508 C   0  0  0  0  0  0  0  0  0  0  0  0
    6.9880   -5.1966   22.5192 N   0  0  0  0  0  0  0  0  0  0  0  0
    6.1532   -4.4719   23.7231 C   0  0  0  0  0  0  0  0  0  0  0  0
    5.8569   -3.2750   23.8899 O   0  0  0  0  0  0  0  0  0  0  0  0
    5.7645   -5.4397   24.8963 C   0  0  0  0  0  0  0  0  0  0  0  0
    5.4895   -4.6158   26.2332 C   0  0  0  0  0  0  0  0  0  0  0  0
    4.0542   -4.0924   26.5064 C   0  0  0  0  0  0  0  0  0  0  0  0
    3.9221   -2.6749   27.1216 C   0  0  0  0  0  0  0  0  0  0  0  0
    2.6487   -2.4708   27.9601 C   0  0  0  0  0  0  0  0  0  0  0  0
    2.8388   -1.0921   28.5787 C   0  0  0  0  0  0  0  0  0  0  0  0
    4.3474   -0.9619   28.7755 C   0  0  0  0  0  0  0  0  0  0  0  0
    4.9739   -2.2045   28.1240 C   0  0  0  0  0  0  0  0  0  0  0  0
   16.6868   -1.9593   18.4295 H   0  0  0  0  0  0  0  0  0  0  0  0
   16.6780   -1.0918   19.9717 H   0  0  0  0  0  0  0  0  0  0  0  0
   15.6626   -0.5243   18.6407 H   0  0  0  0  0  0  0  0  0  0  0  0
   15.3840   -3.1426   20.1878 H   0  0  0  0  0  0  0  0  0  0  0  0
   14.3423   -1.7244   20.3808 H   0  0  0  0  0  0  0  0  0  0  0  0
   14.7455   -1.8573   16.7859 H   0  0  0  0  0  0  0  0  0  0  0  0
   11.4912   -4.8143   17.4712 H   0  0  0  0  0  0  0  0  0  0  0  0
   10.7258   -7.3149   21.4634 H   0  0  0  0  0  0  0  0  0  0  0  0
   12.3910   -7.2220   21.5053 H   0  0  0  0  0  0  0  0  0  0  0  0
   11.7494   -6.0811   22.4885 H   0  0  0  0  0  0  0  0  0  0  0  0
   10.6190   -4.4946   21.3386 H   0  0  0  0  0  0  0  0  0  0  0  0
    9.8376   -5.5451   19.7709 H   0  0  0  0  0  0  0  0  0  0  0  0
    7.7119   -3.4092   21.2188 H   0  0  0  0  0  0  0  0  0  0  0  0
    7.2679   -4.6540   20.1017 H   0  0  0  0  0  0  0  0  0  0  0  0
    6.9690   -6.2027   22.6546 H   0  0  0  0  0  0  0  0  0  0  0  0
    4.9167   -6.0794   24.6528 H   0  0  0  0  0  0  0  0  0  0  0  0
    6.6305   -6.0858   25.0770 H   0  0  0  0  0  0  0  0  0  0  0  0
    5.7479   -5.2809   27.0681 H   0  0  0  0  0  0  0  0  0  0  0  0
    6.2055   -3.7899   26.2860 H   0  0  0  0  0  0  0  0  0  0  0  0
    3.5575   -4.8182   27.1630 H   0  0  0  0  0  0  0  0  0  0  0  0
    3.4883   -4.1088   25.5727 H   0  0  0  0  0  0  0  0  0  0  0  0
    3.9410   -1.9552   26.2936 H   0  0  0  0  0  0  0  0  0  0  0  0
    1.7179   -2.5243   27.4063 H   0  0  0  0  0  0  0  0  0  0  0  0
    2.5933   -3.2277   28.7535 H   0  0  0  0  0  0  0  0  0  0  0  0
    2.2889   -0.9877   29.5189 H   0  0  0  0  0  0  0  0  0  0  0  0
    2.4830   -0.3143   27.8929 H   0  0  0  0  0  0  0  0  0  0  0  0
    4.6149   -0.9036   29.8356 H   0  0  0  0  0  0  0  0  0  0  0  0
    4.7114   -0.0478   28.2930 H   0  0  0  0  0  0  0  0  0  0  0  0
    5.1576   -2.9747   28.8829 H   0  0  0  0  0  0  0  0  0  0  0  0
    5.9301   -1.9596   27.6518 H   0  0  0  0  0  0  0  0  0  0  0  0
  1  2  1  0
  2  3  1  0
  3  4  2  0
  4  5  1  0
  5  6  1  0
  6  7  2  0
  7  8  1  0
  8  9  2  0
  8 10  1  0
 10 11  1  0
 10 12  1  0
 12 13  1  0
 13 14  1  0
 14 15  1  0
 15 16  2  0
 15 17  1  0
 17 18  1  0
 18 19  1  0
 19 20  1  0
 20 21  1  0
 21 22  1  0
 22 23  1  0
 23 24  1  0
  7  3  1  0
 24 20  1  0
  1 25  1  0
  1 26  1  0
  1 27  1  0
  2 28  1  0
  2 29  1  0
  4 30  1  0
  6 31  1  0
 11 32  1  0
 11 33  1  0
 11 34  1  0
 12 35  1  0
 12 36  1  0
 13 37  1  0
 13 38  1  0
 14 39  1  0
 17 40  1  0
 17 41  1  0
 18 42  1  0
 18 43  1  0
 19 44  1  0
 19 45  1  0
 20 46  1  0
 21 47  1  0
 21 48  1  0
 22 49  1  0
 22 50  1  0
 23 51  1  0
 23 52  1  0
 24 53  1  0
 24 54  1  0
M  END
>  <Energy>  (878) 
428.17491732376516

>  <compound_id>  (878) 
63563

>  <target_id>  (878) 
1

>  <reference_id>  (878) 
44

>  <inspiration_ids>  (878) 
[66, 44]

>  <energy_score>  (878) 
360.51201061679694

>  <distance_score>  (878) 
6.456340630475916

>  <path>  (878) 
/opt/xchem-fragalysis-2/maxwin/BulkDock/SCRATCH/511025/C63563-P44/C63563-P44.minimised.mol

>  <scratch_subdir>  (878) 
/opt/xchem-fragalysis-2/maxwin/BulkDock/SCRATCH/511025/C63563-P44

>  <fragmenstein_runtime>  (878) 
14.441075563430786

>  <fragmenstein_outcome>  (878) 
too moved

>  <fragmenstein_mode>  (878) 
expansion

>  <fragmenstein_error>  (878) 


$$$$
C63564-P66
     RDKit          3D

 54 55  0  0  0  0  0  0  0  0999 V2000
   11.6277   -2.7900   15.9711 C   0  0  0  0  0  0  0  0  0  0  0  0
   12.4050   -3.3699   17.1138 C   0  0  0  0  0  0  0  0  0  0  0  0
   13.7132   -3.7733   16.8798 C   0  0  0  0  0  0  0  0  0  0  0  0
   14.5245   -4.4181   18.2201 S   0  0  0  0  0  0  0  0  0  0  0  0
   13.1351   -4.3188   19.1794 C   0  0  0  0  0  0  0  0  0  0  0  0
   12.0532   -3.6433   18.5596 C   0  0  0  0  0  0  0  0  0  0  0  0
   10.7728   -2.9585   20.0261 C   0  0  0  0  0  0  0  0  0  0  0  0
   10.7774   -3.7278   20.9648 O   0  0  0  0  0  0  0  0  0  0  0  0
    9.8873   -0.9653   19.8143 N   0  0  0  0  0  0  0  0  0  0  0  0
    8.2614   -0.6436   19.2303 C   0  0  0  0  0  0  0  0  0  0  0  0
    9.1023    0.0890   20.9909 C   0  0  0  0  0  0  0  0  0  0  0  0
   10.3498    0.9021   22.1237 C   0  0  0  0  0  0  0  0  0  0  0  0
   10.1196    1.1075   23.5815 N   0  0  0  0  0  0  0  0  0  0  0  0
    9.4613    2.1972   24.3043 C   0  0  0  0  0  0  0  0  0  0  0  0
    9.0138    3.2372   23.9098 O   0  0  0  0  0  0  0  0  0  0  0  0
    9.2622    1.8063   25.8239 C   0  0  0  0  0  0  0  0  0  0  0  0
    8.0702    2.5085   26.6025 C   0  0  0  0  0  0  0  0  0  0  0  0
    6.8443    1.6115   26.9469 C   0  0  0  0  0  0  0  0  0  0  0  0
    5.6215    2.2842   27.6465 C   0  0  0  0  0  0  0  0  0  0  0  0
    4.4011    1.3370   27.6231 C   0  0  0  0  0  0  0  0  0  0  0  0
    3.1800    1.8837   28.3705 C   0  0  0  0  0  0  0  0  0  0  0  0
    3.0900    3.4062   28.3816 C   0  0  0  0  0  0  0  0  0  0  0  0
    3.7597    4.0135   27.1614 C   0  0  0  0  0  0  0  0  0  0  0  0
    5.2557    3.6766   27.0943 C   0  0  0  0  0  0  0  0  0  0  0  0
   10.8012   -2.1502   16.2537 H   0  0  0  0  0  0  0  0  0  0  0  0
   12.2808   -2.1940   15.3232 H   0  0  0  0  0  0  0  0  0  0  0  0
   11.2144   -3.6020   15.3645 H   0  0  0  0  0  0  0  0  0  0  0  0
   14.2631   -3.6916   15.9549 H   0  0  0  0  0  0  0  0  0  0  0  0
   13.1671   -4.6180   20.2185 H   0  0  0  0  0  0  0  0  0  0  0  0
    7.4807   -1.0075   19.8861 H   0  0  0  0  0  0  0  0  0  0  0  0
    7.9412    0.4081   19.2882 H   0  0  0  0  0  0  0  0  0  0  0  0
    8.2313   -0.4842   18.1832 H   0  0  0  0  0  0  0  0  0  0  0  0
    8.4419    0.9875   20.7630 H   0  0  0  0  0  0  0  0  0  0  0  0
    9.5764    0.8200   20.3059 H   0  0  0  0  0  0  0  0  0  0  0  0
   10.4640    1.9162   21.7154 H   0  0  0  0  0  0  0  0  0  0  0  0
   11.3145    0.4060   22.0349 H   0  0  0  0  0  0  0  0  0  0  0  0
   10.4452    0.4155   24.2486 H   0  0  0  0  0  0  0  0  0  0  0  0
   10.2015    2.0802   26.3199 H   0  0  0  0  0  0  0  0  0  0  0  0
    9.1430    0.7202   25.9057 H   0  0  0  0  0  0  0  0  0  0  0  0
    8.4748    2.8728   27.5555 H   0  0  0  0  0  0  0  0  0  0  0  0
    7.7525    3.3940   26.0463 H   0  0  0  0  0  0  0  0  0  0  0  0
    7.1955    0.7966   27.5940 H   0  0  0  0  0  0  0  0  0  0  0  0
    6.4978    1.1231   26.0416 H   0  0  0  0  0  0  0  0  0  0  0  0
    5.9026    2.4235   28.7002 H   0  0  0  0  0  0  0  0  0  0  0  0
    4.6723    0.3629   28.0486 H   0  0  0  0  0  0  0  0  0  0  0  0
    4.1136    1.1400   26.5833 H   0  0  0  0  0  0  0  0  0  0  0  0
    2.2754    1.4620   27.9152 H   0  0  0  0  0  0  0  0  0  0  0  0
    3.1918    1.5254   29.4071 H   0  0  0  0  0  0  0  0  0  0  0  0
    2.0396    3.7141   28.4349 H   0  0  0  0  0  0  0  0  0  0  0  0
    3.5753    3.7923   29.2869 H   0  0  0  0  0  0  0  0  0  0  0  0
    3.6337    5.1023   27.1647 H   0  0  0  0  0  0  0  0  0  0  0  0
    3.2612    3.6459   26.2558 H   0  0  0  0  0  0  0  0  0  0  0  0
    5.8135    4.4269   27.6701 H   0  0  0  0  0  0  0  0  0  0  0  0
    5.5833    3.8015   26.0584 H   0  0  0  0  0  0  0  0  0  0  0  0
  1  2  1  0
  2  3  2  0
  3  4  1  0
  4  5  1  0
  5  6  2  0
  6  7  1  0
  7  8  2  0
  7  9  1  0
  9 10  1  0
  9 11  1  0
 11 12  1  0
 12 13  1  0
 13 14  1  0
 14 15  2  0
 14 16  1  0
 16 17  1  0
 17 18  1  0
 18 19  1  0
 19 20  1  0
 20 21  1  0
 21 22  1  0
 22 23  1  0
 23 24  1  0
  6  2  1  0
 24 19  1  0
  1 25  1  0
  1 26  1  0
  1 27  1  0
  3 28  1  0
  5 29  1  0
 10 30  1  0
 10 31  1  0
 10 32  1  0
 11 33  1  0
 11 34  1  0
 12 35  1  0
 12 36  1  0
 13 37  1  0
 16 38  1  0
 16 39  1  0
 17 40  1  0
 17 41  1  0
 18 42  1  0
 18 43  1  0
 19 44  1  0
 20 45  1  0
 20 46  1  0
 21 47  1  0
 21 48  1  0
 22 49  1  0
 22 50  1  0
 23 51  1  0
 23 52  1  0
 24 53  1  0
 24 54  1  0
M  END
>  <Energy>  (879) 
658.51024250518424

>  <compound_id>  (879) 
63564

>  <target_id>  (879) 
1

>  <reference_id>  (879) 
66

>  <inspiration_ids>  (879) 
[66, 44]

>  <energy_score>  (879) 
588.1870517251584

>  <distance_score>  (879) 
6.489217120992203

>  <path>  (879) 
/opt/xchem-fragalysis-2/maxwin/BulkDock/SCRATCH/511025/C63564-P66/C63564-P66.minimised.mol

>  <scratch_subdir>  (879) 
/opt/xchem-fragalysis-2/maxwin/BulkDock/SCRATCH/511025/C63564-P66

>  <fragmenstein_runtime>  (879) 
18.8842830657959

>  <fragmenstein_outcome>  (879) 
too moved

>  <fragmenstein_mode>  (879) 
expansion

>  <fragmenstein_error>  (879) 


$$$$
C63564-P44
     RDKit          3D

 54 55  0  0  0  0  0  0  0  0999 V2000
   12.2971   -2.5371   16.8833 C   0  0  0  0  0  0  0  0  0  0  0  0
   12.7583   -3.1476   18.1727 C   0  0  0  0  0  0  0  0  0  0  0  0
   13.9802   -3.8075   18.1796 C   0  0  0  0  0  0  0  0  0  0  0  0
   14.4128   -4.4983   19.6692 S   0  0  0  0  0  0  0  0  0  0  0  0
   12.9724   -3.9844   20.3991 C   0  0  0  0  0  0  0  0  0  0  0  0
   12.1342   -3.2543   19.5396 C   0  0  0  0  0  0  0  0  0  0  0  0
   10.4992   -2.5228   20.5135 C   0  0  0  0  0  0  0  0  0  0  0  0
   10.2666   -3.2070   21.4519 O   0  0  0  0  0  0  0  0  0  0  0  0
    9.6086   -0.6088   19.8815 N   0  0  0  0  0  0  0  0  0  0  0  0
    8.1674   -0.2602   18.7676 C   0  0  0  0  0  0  0  0  0  0  0  0
    8.7884    0.1392   20.4431 C   0  0  0  0  0  0  0  0  0  0  0  0
    9.9115    1.0387   21.8052 C   0  0  0  0  0  0  0  0  0  0  0  0
    9.7356    1.0442   23.3073 N   0  0  0  0  0  0  0  0  0  0  0  0
   10.1102    2.0301   24.3104 C   0  0  0  0  0  0  0  0  0  0  0  0
   10.7253    3.0537   24.2083 O   0  0  0  0  0  0  0  0  0  0  0  0
    9.4428    1.5972   25.6992 C   0  0  0  0  0  0  0  0  0  0  0  0
    8.4631    2.5844   26.4305 C   0  0  0  0  0  0  0  0  0  0  0  0
    6.9244    2.6385   26.1522 C   0  0  0  0  0  0  0  0  0  0  0  0
    6.0511    1.4159   26.5408 C   0  0  0  0  0  0  0  0  0  0  0  0
    4.6355    1.4718   25.9070 C   0  0  0  0  0  0  0  0  0  0  0  0
    3.7047    2.5029   26.5430 C   0  0  0  0  0  0  0  0  0  0  0  0
    3.5801    2.2787   28.0432 C   0  0  0  0  0  0  0  0  0  0  0  0
    4.9502    2.2505   28.7147 C   0  0  0  0  0  0  0  0  0  0  0  0
    5.9058    1.2411   28.0646 C   0  0  0  0  0  0  0  0  0  0  0  0
   13.0328   -1.8042   16.5337 H   0  0  0  0  0  0  0  0  0  0  0  0
   12.2215   -3.3196   16.1186 H   0  0  0  0  0  0  0  0  0  0  0  0
   11.3335   -2.0423   16.9114 H   0  0  0  0  0  0  0  0  0  0  0  0
   14.6536   -3.9335   17.3430 H   0  0  0  0  0  0  0  0  0  0  0  0
   12.7755   -4.2037   21.4393 H   0  0  0  0  0  0  0  0  0  0  0  0
    7.1758   -0.6551   18.9378 H   0  0  0  0  0  0  0  0  0  0  0  0
    8.5432   -0.2253   17.7189 H   0  0  0  0  0  0  0  0  0  0  0  0
    7.9288    0.8274   18.6465 H   0  0  0  0  0  0  0  0  0  0  0  0
    7.7550   -0.5779   20.4299 H   0  0  0  0  0  0  0  0  0  0  0  0
    8.6631    1.1748   20.0273 H   0  0  0  0  0  0  0  0  0  0  0  0
   10.9588    0.8135   21.7929 H   0  0  0  0  0  0  0  0  0  0  0  0
   10.1357    2.0606   21.4260 H   0  0  0  0  0  0  0  0  0  0  0  0
    9.3028    0.2848   23.7519 H   0  0  0  0  0  0  0  0  0  0  0  0
   10.3091    1.4567   26.3615 H   0  0  0  0  0  0  0  0  0  0  0  0
    8.9708    0.6120   25.6373 H   0  0  0  0  0  0  0  0  0  0  0  0
    8.5867    2.4101   27.5065 H   0  0  0  0  0  0  0  0  0  0  0  0
    8.8469    3.5973   26.2501 H   0  0  0  0  0  0  0  0  0  0  0  0
    6.7809    2.8893   25.1014 H   0  0  0  0  0  0  0  0  0  0  0  0
    6.5448    3.5162   26.6911 H   0  0  0  0  0  0  0  0  0  0  0  0
    6.5510    0.5240   26.1424 H   0  0  0  0  0  0  0  0  0  0  0  0
    4.1747    0.4794   26.0037 H   0  0  0  0  0  0  0  0  0  0  0  0
    4.7011    1.6701   24.8349 H   0  0  0  0  0  0  0  0  0  0  0  0
    4.0822    3.5136   26.3485 H   0  0  0  0  0  0  0  0  0  0  0  0
    2.7141    2.4390   26.0785 H   0  0  0  0  0  0  0  0  0  0  0  0
    2.9652    3.0690   28.4880 H   0  0  0  0  0  0  0  0  0  0  0  0
    3.0642    1.3287   28.2294 H   0  0  0  0  0  0  0  0  0  0  0  0
    4.8288    2.0005   29.7751 H   0  0  0  0  0  0  0  0  0  0  0  0
    5.3940    3.2523   28.6805 H   0  0  0  0  0  0  0  0  0  0  0  0
    5.5199    0.2318   28.2602 H   0  0  0  0  0  0  0  0  0  0  0  0
    6.8832    1.2925   28.5560 H   0  0  0  0  0  0  0  0  0  0  0  0
  1  2  1  0
  2  3  2  0
  3  4  1  0
  4  5  1  0
  5  6  2  0
  6  7  1  0
  7  8  2  0
  7  9  1  0
  9 10  1  0
  9 11  1  0
 11 12  1  0
 12 13  1  0
 13 14  1  0
 14 15  2  0
 14 16  1  0
 16 17  1  0
 17 18  1  0
 18 19  1  0
 19 20  1  0
 20 21  1  0
 21 22  1  0
 22 23  1  0
 23 24  1  0
  6  2  1  0
 24 19  1  0
  1 25  1  0
  1 26  1  0
  1 27  1  0
  3 28  1  0
  5 29  1  0
 10 30  1  0
 10 31  1  0
 10 32  1  0
 11 33  1  0
 11 34  1  0
 12 35  1  0
 12 36  1  0
 13 37  1  0
 16 38  1  0
 16 39  1  0
 17 40  1  0
 17 41  1  0
 18 42  1  0
 18 43  1  0
 19 44  1  0
 20 45  1  0
 20 46  1  0
 21 47  1  0
 21 48  1  0
 22 49  1  0
 22 50  1  0
 23 51  1  0
 23 52  1  0
 24 53  1  0
 24 54  1  0
M  END
>  <Energy>  (880) 
717.13744759817587

>  <compound_id>  (880) 
63564

>  <target_id>  (880) 
1

>  <reference_id>  (880) 
44

>  <inspiration_ids>  (880) 
[66, 44]

>  <energy_score>  (880) 
646.8142568181574

>  <distance_score>  (880) 
6.753235832803414

>  <path>  (880) 
/opt/xchem-fragalysis-2/maxwin/BulkDock/SCRATCH/511025/C63564-P44/C63564-P44.minimised.mol

>  <scratch_subdir>  (880) 
/opt/xchem-fragalysis-2/maxwin/BulkDock/SCRATCH/511025/C63564-P44

>  <fragmenstein_runtime>  (880) 
18.60528588294983

>  <fragmenstein_outcome>  (880) 
too moved

>  <fragmenstein_mode>  (880) 
expansion

>  <fragmenstein_error>  (880) 


$$$$
C26115-P66
     RDKit          3D

 47 48  0  0  0  0  0  0  0  0999 V2000
    7.3286   -1.6890   14.8864 C   0  0  0  0  0  0  0  0  0  0  0  0
    8.3359   -0.7950   15.4065 N   0  0  0  0  0  0  0  0  0  0  0  0
    7.0735   -0.5569   16.7936 C   0  0  0  0  0  0  0  0  0  0  0  0
    7.4000   -0.3489   18.7911 C   0  0  0  0  0  0  0  0  0  0  0  0
    6.6180   -0.4214   20.4768 N   0  0  0  0  0  0  0  0  0  0  0  0
    5.8021   -1.7560   21.3532 C   0  0  0  0  0  0  0  0  0  0  0  0
    5.7510   -2.8691   20.9172 O   0  0  0  0  0  0  0  0  0  0  0  0
    5.0254   -1.7166   23.1681 C   0  0  0  0  0  0  0  0  0  0  0  0
    4.5765   -1.0595   24.7108 C   0  0  0  0  0  0  0  0  0  0  0  0
    3.5641   -1.6851   25.7067 C   0  0  0  0  0  0  0  0  0  0  0  0
    2.7253   -0.7173   26.4526 N   0  0  0  0  0  0  0  0  0  0  0  0
    1.9096   -1.3358   27.4974 C   0  0  0  0  0  0  0  0  0  0  0  0
    1.2962   -0.1196   28.1774 C   0  0  0  0  0  0  0  0  0  0  0  0
    2.3442    0.9762   28.0166 C   0  0  0  0  0  0  0  0  0  0  0  0
    3.4324    0.3577   27.1413 C   0  0  0  0  0  0  0  0  0  0  0  0
    9.8033   -1.5569   15.4211 C   0  0  0  0  0  0  0  0  0  0  0  0
   10.2960   -2.1954   16.3000 O   0  0  0  0  0  0  0  0  0  0  0  0
   10.7729   -1.3905   14.3220 C   0  0  0  0  0  0  0  0  0  0  0  0
   10.8781   -0.0808   13.6479 C   0  0  0  0  0  0  0  0  0  0  0  0
   12.1427    0.2336   13.2061 C   0  0  0  0  0  0  0  0  0  0  0  0
   13.2519   -1.0153   13.5381 S   0  0  0  0  0  0  0  0  0  0  0  0
   12.0824   -1.8791   14.4215 C   0  0  0  0  0  0  0  0  0  0  0  0
   12.7736   -2.9591   15.6061 Cl  0  0  0  0  0  0  0  0  0  0  0  0
    7.7019   -1.8865   13.8810 H   0  0  0  0  0  0  0  0  0  0  0  0
    6.3642   -1.3852   14.5397 H   0  0  0  0  0  0  0  0  0  0  0  0
    7.4574   -2.6873   15.2585 H   0  0  0  0  0  0  0  0  0  0  0  0
    6.0808   -0.8618   16.8625 H   0  0  0  0  0  0  0  0  0  0  0  0
    7.1559    0.4835   16.5204 H   0  0  0  0  0  0  0  0  0  0  0  0
    8.3939   -0.6829   19.0347 H   0  0  0  0  0  0  0  0  0  0  0  0
    7.5207    0.7355   18.8480 H   0  0  0  0  0  0  0  0  0  0  0  0
    6.4668    0.4138   20.9640 H   0  0  0  0  0  0  0  0  0  0  0  0
    4.1034   -2.2908   23.1469 H   0  0  0  0  0  0  0  0  0  0  0  0
    5.7961   -2.3244   23.6282 H   0  0  0  0  0  0  0  0  0  0  0  0
    4.2977   -0.0158   24.6125 H   0  0  0  0  0  0  0  0  0  0  0  0
    5.4701   -1.1526   25.3487 H   0  0  0  0  0  0  0  0  0  0  0  0
    4.1281   -2.2178   26.4749 H   0  0  0  0  0  0  0  0  0  0  0  0
    2.9889   -2.4365   25.1851 H   0  0  0  0  0  0  0  0  0  0  0  0
    1.1381   -2.0078   27.1226 H   0  0  0  0  0  0  0  0  0  0  0  0
    2.5285   -1.8948   28.2115 H   0  0  0  0  0  0  0  0  0  0  0  0
    0.3673    0.1775   27.6760 H   0  0  0  0  0  0  0  0  0  0  0  0
    1.0654   -0.3145   29.2292 H   0  0  0  0  0  0  0  0  0  0  0  0
    1.8977    1.8520   27.5320 H   0  0  0  0  0  0  0  0  0  0  0  0
    2.7484    1.2930   28.9834 H   0  0  0  0  0  0  0  0  0  0  0  0
    3.8451    1.1080   26.4648 H   0  0  0  0  0  0  0  0  0  0  0  0
    4.2449   -0.0319   27.7674 H   0  0  0  0  0  0  0  0  0  0  0  0
   10.0411    0.6031   13.5799 H   0  0  0  0  0  0  0  0  0  0  0  0
   12.4632    1.1307   12.6955 H   0  0  0  0  0  0  0  0  0  0  0  0
  1  2  1  0
  2  3  1  0
  3  4  1  0
  4  5  1  0
  5  6  1  0
  6  7  2  0
  6  8  1  0
  8  9  1  0
  9 10  1  0
 10 11  1  0
 11 12  1  0
 12 13  1  0
 13 14  1  0
 14 15  1  0
  2 16  1  0
 16 17  2  0
 16 18  1  0
 18 19  1  0
 19 20  2  0
 20 21  1  0
 21 22  1  0
 22 23  1  0
 15 11  1  0
 22 18  2  0
  1 24  1  0
  1 25  1  0
  1 26  1  0
  3 27  1  0
  3 28  1  0
  4 29  1  0
  4 30  1  0
  5 31  1  0
  8 32  1  0
  8 33  1  0
  9 34  1  0
  9 35  1  0
 10 36  1  0
 10 37  1  0
 12 38  1  0
 12 39  1  0
 13 40  1  0
 13 41  1  0
 14 42  1  0
 14 43  1  0
 15 44  1  0
 15 45  1  0
 19 46  1  0
 20 47  1  0
M  END
>  <Energy>  (881) 
475.8390327851962

>  <compound_id>  (881) 
26115

>  <target_id>  (881) 
1

>  <reference_id>  (881) 
66

>  <inspiration_ids>  (881) 
[66, 44]

>  <energy_score>  (881) 
441.98223645842825

>  <distance_score>  (881) 
4.664048699304382

>  <path>  (881) 
/opt/xchem-fragalysis-2/maxwin/BulkDock/SCRATCH/511025/C26115-P66/C26115-P66.minimised.mol

>  <scratch_subdir>  (881) 
/opt/xchem-fragalysis-2/maxwin/BulkDock/SCRATCH/511025/C26115-P66

>  <fragmenstein_runtime>  (881) 
9.907989025115967

>  <fragmenstein_outcome>  (881) 
too moved

>  <fragmenstein_mode>  (881) 
expansion

>  <fragmenstein_error>  (881) 


$$$$
C26115-P44
     RDKit          3D

 47 48  0  0  0  0  0  0  0  0999 V2000
    5.8459    5.5066   17.3939 C   0  0  0  0  0  0  0  0  0  0  0  0
    6.6123    5.2087   18.6581 N   0  0  0  0  0  0  0  0  0  0  0  0
    5.6024    6.2373   19.2469 C   0  0  0  0  0  0  0  0  0  0  0  0
    5.6740    6.3950   20.8004 C   0  0  0  0  0  0  0  0  0  0  0  0
    4.8158    5.5007   21.5822 N   0  0  0  0  0  0  0  0  0  0  0  0
    3.8538    5.7829   22.6335 C   0  0  0  0  0  0  0  0  0  0  0  0
    3.4608    6.8262   23.0726 O   0  0  0  0  0  0  0  0  0  0  0  0
    3.3830    4.4597   23.3089 C   0  0  0  0  0  0  0  0  0  0  0  0
    2.1569    4.5768   24.2485 C   0  0  0  0  0  0  0  0  0  0  0  0
    2.0841    3.4786   25.3349 C   0  0  0  0  0  0  0  0  0  0  0  0
    0.7253    3.2367   25.8386 N   0  0  0  0  0  0  0  0  0  0  0  0
    0.6976    2.3481   27.0048 C   0  0  0  0  0  0  0  0  0  0  0  0
   -0.7449    2.4660   27.4667 C   0  0  0  0  0  0  0  0  0  0  0  0
   -1.1500    3.8880   27.1027 C   0  0  0  0  0  0  0  0  0  0  0  0
    0.0184    4.4398   26.2940 C   0  0  0  0  0  0  0  0  0  0  0  0
    8.0287    5.3150   18.4144 C   0  0  0  0  0  0  0  0  0  0  0  0
    8.7691    6.2541   18.5213 O   0  0  0  0  0  0  0  0  0  0  0  0
    8.5508    4.0329   17.8543 C   0  0  0  0  0  0  0  0  0  0  0  0
    8.2251    2.7123   18.3194 C   0  0  0  0  0  0  0  0  0  0  0  0
    8.6744    1.7014   17.4958 C   0  0  0  0  0  0  0  0  0  0  0  0
    9.5541    2.3109   16.1770 S   0  0  0  0  0  0  0  0  0  0  0  0
    9.4305    3.9003   16.7924 C   0  0  0  0  0  0  0  0  0  0  0  0
   10.3429    5.0990   15.9650 Cl  0  0  0  0  0  0  0  0  0  0  0  0
    6.3183    4.9009   16.6063 H   0  0  0  0  0  0  0  0  0  0  0  0
    4.8122    5.1318   17.3922 H   0  0  0  0  0  0  0  0  0  0  0  0
    5.9609    6.5334   17.0151 H   0  0  0  0  0  0  0  0  0  0  0  0
    4.5453    5.9924   19.0597 H   0  0  0  0  0  0  0  0  0  0  0  0
    5.8732    7.2392   18.8768 H   0  0  0  0  0  0  0  0  0  0  0  0
    6.7014    6.2889   21.1569 H   0  0  0  0  0  0  0  0  0  0  0  0
    5.3488    7.4104   21.0562 H   0  0  0  0  0  0  0  0  0  0  0  0
    4.8430    4.4929   21.4162 H   0  0  0  0  0  0  0  0  0  0  0  0
    3.1097    3.7409   22.5369 H   0  0  0  0  0  0  0  0  0  0  0  0
    4.2429    4.0690   23.8656 H   0  0  0  0  0  0  0  0  0  0  0  0
    1.2604    4.5393   23.6156 H   0  0  0  0  0  0  0  0  0  0  0  0
    2.1450    5.5555   24.7424 H   0  0  0  0  0  0  0  0  0  0  0  0
    2.7613    3.7594   26.1520 H   0  0  0  0  0  0  0  0  0  0  0  0
    2.4667    2.5426   24.9132 H   0  0  0  0  0  0  0  0  0  0  0  0
    0.9571    1.3141   26.7668 H   0  0  0  0  0  0  0  0  0  0  0  0
    1.3743    2.6996   27.7945 H   0  0  0  0  0  0  0  0  0  0  0  0
   -1.3809    1.7504   26.9314 H   0  0  0  0  0  0  0  0  0  0  0  0
   -0.8462    2.2704   28.5379 H   0  0  0  0  0  0  0  0  0  0  0  0
   -2.0719    3.8738   26.5102 H   0  0  0  0  0  0  0  0  0  0  0  0
   -1.3322    4.4954   27.9947 H   0  0  0  0  0  0  0  0  0  0  0  0
   -0.3392    5.0544   25.4621 H   0  0  0  0  0  0  0  0  0  0  0  0
    0.6559    5.0588   26.9382 H   0  0  0  0  0  0  0  0  0  0  0  0
    7.6221    2.5214   19.1924 H   0  0  0  0  0  0  0  0  0  0  0  0
    8.4595    0.6490   17.5831 H   0  0  0  0  0  0  0  0  0  0  0  0
  1  2  1  0
  2  3  1  0
  3  4  1  0
  4  5  1  0
  5  6  1  0
  6  7  2  0
  6  8  1  0
  8  9  1  0
  9 10  1  0
 10 11  1  0
 11 12  1  0
 12 13  1  0
 13 14  1  0
 14 15  1  0
  2 16  1  0
 16 17  2  0
 16 18  1  0
 18 19  1  0
 19 20  2  0
 20 21  1  0
 21 22  1  0
 22 23  1  0
 15 11  1  0
 22 18  2  0
  1 24  1  0
  1 25  1  0
  1 26  1  0
  3 27  1  0
  3 28  1  0
  4 29  1  0
  4 30  1  0
  5 31  1  0
  8 32  1  0
  8 33  1  0
  9 34  1  0
  9 35  1  0
 10 36  1  0
 10 37  1  0
 12 38  1  0
 12 39  1  0
 13 40  1  0
 13 41  1  0
 14 42  1  0
 14 43  1  0
 15 44  1  0
 15 45  1  0
 19 46  1  0
 20 47  1  0
M  END
>  <Energy>  (882) 
73.277294672319741

>  <compound_id>  (882) 
26115

>  <target_id>  (882) 
1

>  <reference_id>  (882) 
44

>  <inspiration_ids>  (882) 
[66, 44]

>  <energy_score>  (882) 
39.42049834555269

>  <distance_score>  (882) 
5.588533118025843

>  <path>  (882) 
/opt/xchem-fragalysis-2/maxwin/BulkDock/SCRATCH/511025/C26115-P44/C26115-P44.minimised.mol

>  <scratch_subdir>  (882) 
/opt/xchem-fragalysis-2/maxwin/BulkDock/SCRATCH/511025/C26115-P44

>  <fragmenstein_runtime>  (882) 
21.257909297943115

>  <fragmenstein_outcome>  (882) 
too moved

>  <fragmenstein_mode>  (882) 
expansion

>  <fragmenstein_error>  (882) 


$$$$
C63565-P66
     RDKit          3D

 48 49  0  0  0  0  0  0  0  0999 V2000
   15.5232   -1.6728   16.9905 C   0  0  0  0  0  0  0  0  0  0  0  0
   14.2535   -1.9501   16.2517 C   0  0  0  0  0  0  0  0  0  0  0  0
   13.3448   -3.3408   16.6733 S   0  0  0  0  0  0  0  0  0  0  0  0
   12.1255   -2.9696   15.5454 C   0  0  0  0  0  0  0  0  0  0  0  0
   12.4255   -1.8416   14.8196 C   0  0  0  0  0  0  0  0  0  0  0  0
   13.6601   -1.2133   15.2293 C   0  0  0  0  0  0  0  0  0  0  0  0
   14.2199    0.0534   14.6916 C   0  0  0  0  0  0  0  0  0  0  0  0
   15.1697    0.5215   15.1545 O   0  0  0  0  0  0  0  0  0  0  0  0
   13.2589    0.5195   13.5253 N   0  0  0  0  0  0  0  0  0  0  0  0
   13.5137    1.5521   12.7700 C   0  0  0  0  0  0  0  0  0  0  0  0
   13.0654    2.1364   12.4130 C   0  0  0  0  0  0  0  0  0  0  0  0
   11.4065    2.5143   12.7783 C   0  0  0  0  0  0  0  0  0  0  0  0
   10.8950    3.5767   11.9508 N   0  0  0  0  0  0  0  0  0  0  0  0
   10.7384    3.6682   10.5253 C   0  0  0  0  0  0  0  0  0  0  0  0
   11.0656    2.9171    9.6553 O   0  0  0  0  0  0  0  0  0  0  0  0
   10.0365    4.9911   10.2001 C   0  0  0  0  0  0  0  0  0  0  0  0
    9.7497    5.1483    8.7055 C   0  0  0  0  0  0  0  0  0  0  0  0
    8.9324    6.3991    8.3757 C   0  0  0  0  0  0  0  0  0  0  0  0
    9.7242    7.6793    8.6064 C   0  0  0  0  0  0  0  0  0  0  0  0
   10.9143    7.9708    7.6516 C   0  0  0  0  0  0  0  0  0  0  0  0
   10.5062    9.4565    7.7138 C   0  0  0  0  0  0  0  0  0  0  0  0
    9.0788    8.9758    8.0451 C   0  0  0  0  0  0  0  0  0  0  0  0
   15.4436   -0.7293   17.5406 H   0  0  0  0  0  0  0  0  0  0  0  0
   15.7647   -2.4571   17.7158 H   0  0  0  0  0  0  0  0  0  0  0  0
   16.3637   -1.6034   16.2923 H   0  0  0  0  0  0  0  0  0  0  0  0
   11.2582   -3.6068   15.4446 H   0  0  0  0  0  0  0  0  0  0  0  0
   11.7671   -1.4640   14.0449 H   0  0  0  0  0  0  0  0  0  0  0  0
   14.0441    2.0569   13.8322 H   0  0  0  0  0  0  0  0  0  0  0  0
   13.9132    0.6451   11.9899 H   0  0  0  0  0  0  0  0  0  0  0  0
   14.7852    1.6547   12.5904 H   0  0  0  0  0  0  0  0  0  0  0  0
   12.9022    2.0014   11.1886 H   0  0  0  0  0  0  0  0  0  0  0  0
   13.5187    3.2945   12.6291 H   0  0  0  0  0  0  0  0  0  0  0  0
   11.3375    2.8087   13.8308 H   0  0  0  0  0  0  0  0  0  0  0  0
   10.8108    1.6128   12.5988 H   0  0  0  0  0  0  0  0  0  0  0  0
   10.4212    4.3619   12.3869 H   0  0  0  0  0  0  0  0  0  0  0  0
   10.6822    5.8043   10.5496 H   0  0  0  0  0  0  0  0  0  0  0  0
    9.0931    5.0294   10.7577 H   0  0  0  0  0  0  0  0  0  0  0  0
    9.1876    4.2721    8.3576 H   0  0  0  0  0  0  0  0  0  0  0  0
   10.6934    5.1537    8.1466 H   0  0  0  0  0  0  0  0  0  0  0  0
    8.0165    6.4145    8.9782 H   0  0  0  0  0  0  0  0  0  0  0  0
    8.6181    6.3391    7.3263 H   0  0  0  0  0  0  0  0  0  0  0  0
    9.9998    7.8054    9.6629 H   0  0  0  0  0  0  0  0  0  0  0  0
   10.8145    7.5305    6.6525 H   0  0  0  0  0  0  0  0  0  0  0  0
   11.9065    7.7365    8.0459 H   0  0  0  0  0  0  0  0  0  0  0  0
   10.6155   10.0199    6.7840 H   0  0  0  0  0  0  0  0  0  0  0  0
   10.9851   10.0120    8.5282 H   0  0  0  0  0  0  0  0  0  0  0  0
    8.5312    9.5849    8.7690 H   0  0  0  0  0  0  0  0  0  0  0  0
    8.4511    8.8279    7.1584 H   0  0  0  0  0  0  0  0  0  0  0  0
  1  2  1  0
  2  3  1  0
  3  4  1  0
  4  5  2  0
  5  6  1  0
  6  7  1  0
  7  8  2  0
  7  9  1  0
  9 10  1  0
  9 11  1  0
 11 12  1  0
 12 13  1  0
 13 14  1  0
 14 15  2  0
 14 16  1  0
 16 17  1  0
 17 18  1  0
 18 19  1  0
 19 20  1  0
 20 21  1  0
 21 22  1  0
  6  2  2  0
 22 19  1  0
  1 23  1  0
  1 24  1  0
  1 25  1  0
  4 26  1  0
  5 27  1  0
 10 28  1  0
 10 29  1  0
 10 30  1  0
 11 31  1  0
 11 32  1  0
 12 33  1  0
 12 34  1  0
 13 35  1  0
 16 36  1  0
 16 37  1  0
 17 38  1  0
 17 39  1  0
 18 40  1  0
 18 41  1  0
 19 42  1  0
 20 43  1  0
 20 44  1  0
 21 45  1  0
 21 46  1  0
 22 47  1  0
 22 48  1  0
M  END
>  <Energy>  (883) 
756.87350617533764

>  <compound_id>  (883) 
63565

>  <target_id>  (883) 
1

>  <reference_id>  (883) 
66

>  <inspiration_ids>  (883) 
[66, 44]

>  <energy_score>  (883) 
707.108472897193

>  <distance_score>  (883) 
13.685077356781518

>  <path>  (883) 
/opt/xchem-fragalysis-2/maxwin/BulkDock/SCRATCH/511025/C63565-P66/C63565-P66.minimised.mol

>  <scratch_subdir>  (883) 
/opt/xchem-fragalysis-2/maxwin/BulkDock/SCRATCH/511025/C63565-P66

>  <fragmenstein_runtime>  (883) 
50.59067368507385

>  <fragmenstein_outcome>  (883) 
too moved

>  <fragmenstein_mode>  (883) 
expansion

>  <fragmenstein_error>  (883) 


$$$$
C63565-P44
     RDKit          3D

 48 49  0  0  0  0  0  0  0  0999 V2000
    9.8656   -0.4951   16.4355 C   0  0  0  0  0  0  0  0  0  0  0  0
    8.7858    0.3391   17.5742 C   0  0  0  0  0  0  0  0  0  0  0  0
    8.1944    1.3847   16.2618 S   0  0  0  0  0  0  0  0  0  0  0  0
    7.3208   -0.1862   15.8834 C   0  0  0  0  0  0  0  0  0  0  0  0
    6.6942   -0.4663   17.0942 C   0  0  0  0  0  0  0  0  0  0  0  0
    7.5355   -0.1654   18.3819 C   0  0  0  0  0  0  0  0  0  0  0  0
    6.9414    0.1693   19.9160 C   0  0  0  0  0  0  0  0  0  0  0  0
    7.1942    1.2781   20.1671 O   0  0  0  0  0  0  0  0  0  0  0  0
    5.8745   -1.1951   20.8980 N   0  0  0  0  0  0  0  0  0  0  0  0
    4.9244   -0.7019   22.4409 C   0  0  0  0  0  0  0  0  0  0  0  0
    4.9282   -1.3936   22.6828 C   0  0  0  0  0  0  0  0  0  0  0  0
    5.2940   -2.3236   24.2512 C   0  0  0  0  0  0  0  0  0  0  0  0
    4.8293   -1.6442   25.4428 N   0  0  0  0  0  0  0  0  0  0  0  0
    4.2246   -2.1542   26.6417 C   0  0  0  0  0  0  0  0  0  0  0  0
    4.0213   -3.2781   26.9961 O   0  0  0  0  0  0  0  0  0  0  0  0
    3.7541   -0.9767   27.5035 C   0  0  0  0  0  0  0  0  0  0  0  0
    2.6556   -1.4103   28.4771 C   0  0  0  0  0  0  0  0  0  0  0  0
    1.9635   -0.2172   29.1335 C   0  0  0  0  0  0  0  0  0  0  0  0
    0.7910   -0.6951   29.9817 C   0  0  0  0  0  0  0  0  0  0  0  0
   -0.1243    0.4175   30.5572 C   0  0  0  0  0  0  0  0  0  0  0  0
   -1.3128   -0.5391   30.3295 C   0  0  0  0  0  0  0  0  0  0  0  0
   -0.4685   -1.2118   29.2295 C   0  0  0  0  0  0  0  0  0  0  0  0
    9.3193   -1.0790   15.6883 H   0  0  0  0  0  0  0  0  0  0  0  0
   10.4623    0.2687   15.9138 H   0  0  0  0  0  0  0  0  0  0  0  0
   10.5685   -1.2347   16.8104 H   0  0  0  0  0  0  0  0  0  0  0  0
    7.0706   -0.4936   14.8813 H   0  0  0  0  0  0  0  0  0  0  0  0
    5.7014   -0.8736   17.2052 H   0  0  0  0  0  0  0  0  0  0  0  0
    5.3874   -0.0203   23.5359 H   0  0  0  0  0  0  0  0  0  0  0  0
    4.4192   -0.0318   21.5659 H   0  0  0  0  0  0  0  0  0  0  0  0
    4.8157    0.5773   22.5815 H   0  0  0  0  0  0  0  0  0  0  0  0
    5.1004   -2.6209   22.3766 H   0  0  0  0  0  0  0  0  0  0  0  0
    3.7182   -1.8792   22.8805 H   0  0  0  0  0  0  0  0  0  0  0  0
    6.3191   -2.6345   24.4153 H   0  0  0  0  0  0  0  0  0  0  0  0
    4.7171   -3.2603   24.1955 H   0  0  0  0  0  0  0  0  0  0  0  0
    4.9124   -0.6353   25.5176 H   0  0  0  0  0  0  0  0  0  0  0  0
    4.6160   -0.5786   28.0496 H   0  0  0  0  0  0  0  0  0  0  0  0
    3.3613   -0.1887   26.8498 H   0  0  0  0  0  0  0  0  0  0  0  0
    1.9099   -2.0122   27.9433 H   0  0  0  0  0  0  0  0  0  0  0  0
    3.0790   -2.0661   29.2484 H   0  0  0  0  0  0  0  0  0  0  0  0
    2.6805    0.3243   29.7615 H   0  0  0  0  0  0  0  0  0  0  0  0
    1.6141    0.4820   28.3641 H   0  0  0  0  0  0  0  0  0  0  0  0
    1.1210   -1.3923   30.7660 H   0  0  0  0  0  0  0  0  0  0  0  0
   -0.1708    1.3269   29.9466 H   0  0  0  0  0  0  0  0  0  0  0  0
    0.0638    0.6978   31.5968 H   0  0  0  0  0  0  0  0  0  0  0  0
   -2.2428   -0.0734   29.9961 H   0  0  0  0  0  0  0  0  0  0  0  0
   -1.5252   -1.1914   31.1842 H   0  0  0  0  0  0  0  0  0  0  0  0
   -0.5669   -2.2982   29.1570 H   0  0  0  0  0  0  0  0  0  0  0  0
   -0.6166   -0.7745   28.2349 H   0  0  0  0  0  0  0  0  0  0  0  0
  1  2  1  0
  2  3  1  0
  3  4  1  0
  4  5  2  0
  5  6  1  0
  6  7  1  0
  7  8  2  0
  7  9  1  0
  9 10  1  0
  9 11  1  0
 11 12  1  0
 12 13  1  0
 13 14  1  0
 14 15  2  0
 14 16  1  0
 16 17  1  0
 17 18  1  0
 18 19  1  0
 19 20  1  0
 20 21  1  0
 21 22  1  0
  6  2  2  0
 22 19  1  0
  1 23  1  0
  1 24  1  0
  1 25  1  0
  4 26  1  0
  5 27  1  0
 10 28  1  0
 10 29  1  0
 10 30  1  0
 11 31  1  0
 11 32  1  0
 12 33  1  0
 12 34  1  0
 13 35  1  0
 16 36  1  0
 16 37  1  0
 17 38  1  0
 17 39  1  0
 18 40  1  0
 18 41  1  0
 19 42  1  0
 20 43  1  0
 20 44  1  0
 21 45  1  0
 21 46  1  0
 22 47  1  0
 22 48  1  0
M  END
>  <Energy>  (884) 
1105.7743959493316

>  <compound_id>  (884) 
63565

>  <target_id>  (884) 
1

>  <reference_id>  (884) 
44

>  <inspiration_ids>  (884) 
[66, 44]

>  <energy_score>  (884) 
1056.0093626712098

>  <distance_score>  (884) 
6.401043193272908

>  <path>  (884) 
/opt/xchem-fragalysis-2/maxwin/BulkDock/SCRATCH/511025/C63565-P44/C63565-P44.minimised.mol

>  <scratch_subdir>  (884) 
/opt/xchem-fragalysis-2/maxwin/BulkDock/SCRATCH/511025/C63565-P44

>  <fragmenstein_runtime>  (884) 
48.57835578918457

>  <fragmenstein_outcome>  (884) 
too moved

>  <fragmenstein_mode>  (884) 
expansion

>  <fragmenstein_error>  (884) 


$$$$
C63566-P66
     RDKit          3D

 43 44  0  0  0  0  0  0  0  0999 V2000
   10.4504   -0.4677   26.7562 C   0  0  0  0  0  0  0  0  0  0  0  0
    9.5852    0.2359   25.7136 C   0  0  0  0  0  0  0  0  0  0  0  0
    8.4807    1.1225   26.4241 C   0  0  0  0  0  0  0  0  0  0  0  0
    8.6982    2.2917   26.5856 O   0  0  0  0  0  0  0  0  0  0  0  0
    7.3274    0.3008   26.8189 N   0  0  0  0  0  0  0  0  0  0  0  0
    6.1255    0.6359   27.6206 C   0  0  0  0  0  0  0  0  0  0  0  0
    4.7834    0.0844   27.1004 C   0  0  0  0  0  0  0  0  0  0  0  0
    3.4092    0.4139   28.2487 S   0  0  0  0  0  0  0  0  0  0  0  0
    3.3919   -0.5911   29.2894 O   0  0  0  0  0  0  0  0  0  0  0  0
    3.3690    1.8192   28.5795 O   0  0  0  0  0  0  0  0  0  0  0  0
    2.0435    0.1063   27.2959 N   0  0  0  0  0  0  0  0  0  0  0  0
    0.7257    0.4796   27.8787 C   0  0  0  0  0  0  0  0  0  0  0  0
    0.1815    1.7644   27.2709 C   0  0  0  0  0  0  0  0  0  0  0  0
   -1.2996    2.1011   27.5998 C   0  0  0  0  0  0  0  0  0  0  0  0
   -0.8825    3.5860   27.5872 C   0  0  0  0  0  0  0  0  0  0  0  0
    0.5362    3.1091   27.9618 C   0  0  0  0  0  0  0  0  0  0  0  0
   10.4452    0.9767   24.6462 C   0  0  0  0  0  0  0  0  0  0  0  0
   10.1498    2.0894   23.8644 C   0  0  0  0  0  0  0  0  0  0  0  0
   11.1107    2.3424   22.8335 C   0  0  0  0  0  0  0  0  0  0  0  0
   12.1614    1.4725   22.9180 C   0  0  0  0  0  0  0  0  0  0  0  0
   13.5767    1.4768   21.9474 Cl  0  0  0  0  0  0  0  0  0  0  0  0
   11.9976    0.3497   24.1648 S   0  0  0  0  0  0  0  0  0  0  0  0
   11.0335   -1.2869   26.3231 H   0  0  0  0  0  0  0  0  0  0  0  0
   11.1407    0.2335   27.2389 H   0  0  0  0  0  0  0  0  0  0  0  0
    9.8308   -0.9031   27.5482 H   0  0  0  0  0  0  0  0  0  0  0  0
    9.0410   -0.5462   25.1776 H   0  0  0  0  0  0  0  0  0  0  0  0
    7.5184   -0.6718   26.5926 H   0  0  0  0  0  0  0  0  0  0  0  0
    6.0826    1.7274   27.7003 H   0  0  0  0  0  0  0  0  0  0  0  0
    6.3198    0.2470   28.6260 H   0  0  0  0  0  0  0  0  0  0  0  0
    4.5270    0.5589   26.1516 H   0  0  0  0  0  0  0  0  0  0  0  0
    4.8313   -0.9987   26.9538 H   0  0  0  0  0  0  0  0  0  0  0  0
    2.0470   -0.8689   26.9777 H   0  0  0  0  0  0  0  0  0  0  0  0
    0.0395   -0.3455   27.6509 H   0  0  0  0  0  0  0  0  0  0  0  0
    0.7767    0.5365   28.9716 H   0  0  0  0  0  0  0  0  0  0  0  0
    0.3603    1.8121   26.1884 H   0  0  0  0  0  0  0  0  0  0  0  0
   -1.6392    1.7453   28.5796 H   0  0  0  0  0  0  0  0  0  0  0  0
   -2.0324    1.8085   26.8431 H   0  0  0  0  0  0  0  0  0  0  0  0
   -1.3767    4.2306   28.3159 H   0  0  0  0  0  0  0  0  0  0  0  0
   -0.9450    4.0536   26.5977 H   0  0  0  0  0  0  0  0  0  0  0  0
    0.7019    3.0381   29.0431 H   0  0  0  0  0  0  0  0  0  0  0  0
    1.3559    3.6740   27.5108 H   0  0  0  0  0  0  0  0  0  0  0  0
    9.2487    2.6780   23.9933 H   0  0  0  0  0  0  0  0  0  0  0  0
   11.0400    3.1441   22.1097 H   0  0  0  0  0  0  0  0  0  0  0  0
  1  2  1  0
  2  3  1  0
  3  4  2  0
  3  5  1  0
  5  6  1  0
  6  7  1  0
  7  8  1  0
  8  9  2  0
  8 10  2  0
  8 11  1  0
 11 12  1  0
 12 13  1  0
 13 14  1  0
 14 15  1  0
 15 16  1  0
  2 17  1  0
 17 18  2  0
 18 19  1  0
 19 20  2  0
 20 21  1  0
 20 22  1  0
 16 13  1  0
 22 17  1  0
  1 23  1  0
  1 24  1  0
  1 25  1  0
  2 26  1  0
  5 27  1  0
  6 28  1  0
  6 29  1  0
  7 30  1  0
  7 31  1  0
 11 32  1  0
 12 33  1  0
 12 34  1  0
 13 35  1  0
 14 36  1  0
 14 37  1  0
 15 38  1  0
 15 39  1  0
 16 40  1  0
 16 41  1  0
 18 42  1  0
 19 43  1  0
M  END
>  <Energy>  (885) 
-33.171263360335189

>  <compound_id>  (885) 
63566

>  <target_id>  (885) 
1

>  <reference_id>  (885) 
66

>  <inspiration_ids>  (885) 
[66, 44]

>  <energy_score>  (885) 
-53.55786585919651

>  <distance_score>  (885) 
7.001588615682861

>  <path>  (885) 
/opt/xchem-fragalysis-2/maxwin/BulkDock/SCRATCH/511025/C63566-P66/C63566-P66.minimised.mol

>  <scratch_subdir>  (885) 
/opt/xchem-fragalysis-2/maxwin/BulkDock/SCRATCH/511025/C63566-P66

>  <fragmenstein_runtime>  (885) 
11.267073154449463

>  <fragmenstein_outcome>  (885) 
too moved

>  <fragmenstein_mode>  (885) 
expansion

>  <fragmenstein_error>  (885) 


$$$$
C63566-P44
     RDKit          3D

 43 44  0  0  0  0  0  0  0  0999 V2000
    7.7377   -0.2809   16.5125 C   0  0  0  0  0  0  0  0  0  0  0  0
    6.7367   -0.1561   17.9379 C   0  0  0  0  0  0  0  0  0  0  0  0
    7.0441   -0.9428   19.6958 C   0  0  0  0  0  0  0  0  0  0  0  0
    8.0464   -0.5101   20.1554 O   0  0  0  0  0  0  0  0  0  0  0  0
    5.7275   -2.0998   20.4568 N   0  0  0  0  0  0  0  0  0  0  0  0
    5.5009   -2.7803   22.1066 C   0  0  0  0  0  0  0  0  0  0  0  0
    4.7463   -1.7527   23.4748 C   0  0  0  0  0  0  0  0  0  0  0  0
    4.9674   -2.0456   25.3154 S   0  0  0  0  0  0  0  0  0  0  0  0
    6.2168   -1.5690   25.8563 O   0  0  0  0  0  0  0  0  0  0  0  0
    4.4336   -3.3475   25.6680 O   0  0  0  0  0  0  0  0  0  0  0  0
    3.8261   -1.0011   26.0530 N   0  0  0  0  0  0  0  0  0  0  0  0
    3.9756    0.4645   26.0345 C   0  0  0  0  0  0  0  0  0  0  0  0
    3.3430    1.1001   27.2837 C   0  0  0  0  0  0  0  0  0  0  0  0
    3.1621    2.6416   27.2444 C   0  0  0  0  0  0  0  0  0  0  0  0
    1.6669    2.4266   26.9591 C   0  0  0  0  0  0  0  0  0  0  0  0
    1.8131    1.0065   27.5339 C   0  0  0  0  0  0  0  0  0  0  0  0
    7.0501    1.3836   17.9655 C   0  0  0  0  0  0  0  0  0  0  0  0
    6.4270    2.3313   17.1505 C   0  0  0  0  0  0  0  0  0  0  0  0
    7.1210    3.5729   17.0889 C   0  0  0  0  0  0  0  0  0  0  0  0
    8.2228    3.5510   17.8961 C   0  0  0  0  0  0  0  0  0  0  0  0
    9.2823    4.8671   18.1939 Cl  0  0  0  0  0  0  0  0  0  0  0  0
    8.4693    2.0644   18.6397 S   0  0  0  0  0  0  0  0  0  0  0  0
    7.4306   -1.1101   15.8673 H   0  0  0  0  0  0  0  0  0  0  0  0
    7.6872    0.5941   15.8657 H   0  0  0  0  0  0  0  0  0  0  0  0
    8.7992   -0.3718   16.7642 H   0  0  0  0  0  0  0  0  0  0  0  0
    5.7174   -0.3025   17.5631 H   0  0  0  0  0  0  0  0  0  0  0  0
    5.0569   -2.3375   19.7715 H   0  0  0  0  0  0  0  0  0  0  0  0
    6.3063   -3.3799   22.5280 H   0  0  0  0  0  0  0  0  0  0  0  0
    4.5769   -3.0116   21.6828 H   0  0  0  0  0  0  0  0  0  0  0  0
    3.6849   -1.9788   23.4132 H   0  0  0  0  0  0  0  0  0  0  0  0
    4.9323   -0.6974   23.3244 H   0  0  0  0  0  0  0  0  0  0  0  0
    3.5867   -1.3941   26.9659 H   0  0  0  0  0  0  0  0  0  0  0  0
    5.0370    0.7327   26.0066 H   0  0  0  0  0  0  0  0  0  0  0  0
    3.5165    0.8565   25.1246 H   0  0  0  0  0  0  0  0  0  0  0  0
    3.9181    0.7771   28.1635 H   0  0  0  0  0  0  0  0  0  0  0  0
    3.7154    3.1759   26.4671 H   0  0  0  0  0  0  0  0  0  0  0  0
    3.3560    3.1261   28.2087 H   0  0  0  0  0  0  0  0  0  0  0  0
    1.4195    2.4644   25.8941 H   0  0  0  0  0  0  0  0  0  0  0  0
    0.9835    3.0857   27.5009 H   0  0  0  0  0  0  0  0  0  0  0  0
    1.2756    0.2160   27.0087 H   0  0  0  0  0  0  0  0  0  0  0  0
    1.5553    0.9450   28.5984 H   0  0  0  0  0  0  0  0  0  0  0  0
    5.5114    2.1257   16.6092 H   0  0  0  0  0  0  0  0  0  0  0  0
    6.8037    4.4371   16.5196 H   0  0  0  0  0  0  0  0  0  0  0  0
  1  2  1  0
  2  3  1  0
  3  4  2  0
  3  5  1  0
  5  6  1  0
  6  7  1  0
  7  8  1  0
  8  9  2  0
  8 10  2  0
  8 11  1  0
 11 12  1  0
 12 13  1  0
 13 14  1  0
 14 15  1  0
 15 16  1  0
  2 17  1  0
 17 18  2  0
 18 19  1  0
 19 20  2  0
 20 21  1  0
 20 22  1  0
 16 13  1  0
 22 17  1  0
  1 23  1  0
  1 24  1  0
  1 25  1  0
  2 26  1  0
  5 27  1  0
  6 28  1  0
  6 29  1  0
  7 30  1  0
  7 31  1  0
 11 32  1  0
 12 33  1  0
 12 34  1  0
 13 35  1  0
 14 36  1  0
 14 37  1  0
 15 38  1  0
 15 39  1  0
 16 40  1  0
 16 41  1  0
 18 42  1  0
 19 43  1  0
M  END
>  <Energy>  (886) 
220.17919336171985

>  <compound_id>  (886) 
63566

>  <target_id>  (886) 
1

>  <reference_id>  (886) 
44

>  <inspiration_ids>  (886) 
[66, 44]

>  <energy_score>  (886) 
199.7925908628601

>  <distance_score>  (886) 
6.921612269082309

>  <path>  (886) 
/opt/xchem-fragalysis-2/maxwin/BulkDock/SCRATCH/511025/C63566-P44/C63566-P44.minimised.mol

>  <scratch_subdir>  (886) 
/opt/xchem-fragalysis-2/maxwin/BulkDock/SCRATCH/511025/C63566-P44

>  <fragmenstein_runtime>  (886) 
12.639237880706787

>  <fragmenstein_outcome>  (886) 
too moved

>  <fragmenstein_mode>  (886) 
expansion

>  <fragmenstein_error>  (886) 


$$$$
C63567-P66
     RDKit          3D

 46 47  0  0  0  0  0  0  0  0999 V2000
   13.6696   -1.6521   24.3807 C   0  0  0  0  0  0  0  0  0  0  0  0
   12.5725   -0.6492   24.4795 C   0  0  0  0  0  0  0  0  0  0  0  0
   12.2121    0.3222   23.5723 C   0  0  0  0  0  0  0  0  0  0  0  0
   11.0779    1.0609   24.0074 C   0  0  0  0  0  0  0  0  0  0  0  0
   10.6443    0.6973   25.2796 C   0  0  0  0  0  0  0  0  0  0  0  0
    9.5996    1.3857   26.1940 C   0  0  0  0  0  0  0  0  0  0  0  0
    9.4356    2.8209   25.6659 C   0  0  0  0  0  0  0  0  0  0  0  0
    8.2264    0.5863   26.3199 C   0  0  0  0  0  0  0  0  0  0  0  0
    8.1377   -0.4762   25.7761 O   0  0  0  0  0  0  0  0  0  0  0  0
    7.2266    1.3721   27.0407 N   0  0  0  0  0  0  0  0  0  0  0  0
    5.7772    1.1507   27.2382 C   0  0  0  0  0  0  0  0  0  0  0  0
    5.2850    0.0507   28.1747 C   0  0  0  0  0  0  0  0  0  0  0  0
    3.5691    0.3467   28.7375 S   0  0  0  0  0  0  0  0  0  0  0  0
    3.0174   -0.8765   29.2787 O   0  0  0  0  0  0  0  0  0  0  0  0
    3.5457    1.5602   29.5264 O   0  0  0  0  0  0  0  0  0  0  0  0
    2.6973    0.6412   27.3285 N   0  0  0  0  0  0  0  0  0  0  0  0
    1.7260    1.7609   27.3338 C   0  0  0  0  0  0  0  0  0  0  0  0
    0.5317    1.5483   28.2497 C   0  0  0  0  0  0  0  0  0  0  0  0
   -0.5860    0.5787   27.7885 C   0  0  0  0  0  0  0  0  0  0  0  0
   -1.5976    1.5624   28.4012 C   0  0  0  0  0  0  0  0  0  0  0  0
   -0.5432    2.6663   28.1892 C   0  0  0  0  0  0  0  0  0  0  0  0
   11.5662   -0.6294   25.8614 S   0  0  0  0  0  0  0  0  0  0  0  0
   14.2814   -1.4780   23.4894 H   0  0  0  0  0  0  0  0  0  0  0  0
   13.2619   -2.6665   24.3183 H   0  0  0  0  0  0  0  0  0  0  0  0
   14.3306   -1.5951   25.2519 H   0  0  0  0  0  0  0  0  0  0  0  0
   12.7212    0.4726   22.6289 H   0  0  0  0  0  0  0  0  0  0  0  0
   10.6408    1.8624   23.4259 H   0  0  0  0  0  0  0  0  0  0  0  0
   10.0176    1.4368   27.2087 H   0  0  0  0  0  0  0  0  0  0  0  0
    8.8504    3.4456   26.3466 H   0  0  0  0  0  0  0  0  0  0  0  0
   10.4058    3.3207   25.5577 H   0  0  0  0  0  0  0  0  0  0  0  0
    8.9306    2.8434   24.6958 H   0  0  0  0  0  0  0  0  0  0  0  0
    7.6291    2.2616   27.2997 H   0  0  0  0  0  0  0  0  0  0  0  0
    5.3662    0.9419   26.2500 H   0  0  0  0  0  0  0  0  0  0  0  0
    5.3851    2.1234   27.5542 H   0  0  0  0  0  0  0  0  0  0  0  0
    5.8952    0.0064   29.0824 H   0  0  0  0  0  0  0  0  0  0  0  0
    5.3115   -0.9292   27.6887 H   0  0  0  0  0  0  0  0  0  0  0  0
    2.3194   -0.2361   26.9543 H   0  0  0  0  0  0  0  0  0  0  0  0
    1.3903    1.9060   26.3008 H   0  0  0  0  0  0  0  0  0  0  0  0
    2.2540    2.6835   27.6023 H   0  0  0  0  0  0  0  0  0  0  0  0
    0.8358    1.3562   29.2883 H   0  0  0  0  0  0  0  0  0  0  0  0
   -0.6942    0.4863   26.7075 H   0  0  0  0  0  0  0  0  0  0  0  0
   -0.5636   -0.4193   28.2334 H   0  0  0  0  0  0  0  0  0  0  0  0
   -2.5318    1.6902   27.8503 H   0  0  0  0  0  0  0  0  0  0  0  0
   -1.8227    1.3502   29.4520 H   0  0  0  0  0  0  0  0  0  0  0  0
   -0.6271    3.1685   27.2180 H   0  0  0  0  0  0  0  0  0  0  0  0
   -0.4823    3.4238   28.9747 H   0  0  0  0  0  0  0  0  0  0  0  0
  1  2  1  0
  2  3  2  0
  3  4  1  0
  4  5  2  0
  5  6  1  0
  6  7  1  0
  6  8  1  0
  8  9  2  0
  8 10  1  0
 10 11  1  0
 11 12  1  0
 12 13  1  0
 13 14  2  0
 13 15  2  0
 13 16  1  0
 16 17  1  0
 17 18  1  0
 18 19  1  0
 19 20  1  0
 20 21  1  0
  5 22  1  0
 22  2  1  0
 21 18  1  0
  1 23  1  0
  1 24  1  0
  1 25  1  0
  3 26  1  0
  4 27  1  0
  6 28  1  0
  7 29  1  0
  7 30  1  0
  7 31  1  0
 10 32  1  0
 11 33  1  0
 11 34  1  0
 12 35  1  0
 12 36  1  0
 16 37  1  0
 17 38  1  0
 17 39  1  0
 18 40  1  0
 19 41  1  0
 19 42  1  0
 20 43  1  0
 20 44  1  0
 21 45  1  0
 21 46  1  0
M  END
>  <Energy>  (887) 
-32.19022168591227

>  <compound_id>  (887) 
63567

>  <target_id>  (887) 
1

>  <reference_id>  (887) 
66

>  <inspiration_ids>  (887) 
[66, 44]

>  <energy_score>  (887) 
-35.38521379120493

>  <distance_score>  (887) 
7.2972224111497415

>  <path>  (887) 
/opt/xchem-fragalysis-2/maxwin/BulkDock/SCRATCH/511025/C63567-P66/C63567-P66.minimised.mol

>  <scratch_subdir>  (887) 
/opt/xchem-fragalysis-2/maxwin/BulkDock/SCRATCH/511025/C63567-P66

>  <fragmenstein_runtime>  (887) 
15.751355648040771

>  <fragmenstein_outcome>  (887) 
too moved

>  <fragmenstein_mode>  (887) 
expansion

>  <fragmenstein_error>  (887) 


$$$$
C63567-P44
     RDKit          3D

 46 47  0  0  0  0  0  0  0  0999 V2000
   11.1344   -5.4463   25.7223 C   0  0  0  0  0  0  0  0  0  0  0  0
   10.8417   -3.9874   25.6851 C   0  0  0  0  0  0  0  0  0  0  0  0
   11.4182   -3.0144   24.9041 C   0  0  0  0  0  0  0  0  0  0  0  0
   10.9292   -1.7203   25.2413 C   0  0  0  0  0  0  0  0  0  0  0  0
    9.9225   -1.7291   26.2004 C   0  0  0  0  0  0  0  0  0  0  0  0
    9.2078   -0.5399   26.8543 C   0  0  0  0  0  0  0  0  0  0  0  0
    9.7497    0.7724   26.2365 C   0  0  0  0  0  0  0  0  0  0  0  0
    7.6239   -0.5483   26.7550 C   0  0  0  0  0  0  0  0  0  0  0  0
    7.1227    0.0681   25.8604 O   0  0  0  0  0  0  0  0  0  0  0  0
    7.0237   -1.2537   27.8612 N   0  0  0  0  0  0  0  0  0  0  0  0
    5.6086   -1.5210   28.1859 C   0  0  0  0  0  0  0  0  0  0  0  0
    4.6002   -0.3954   27.8843 C   0  0  0  0  0  0  0  0  0  0  0  0
    2.9470   -0.8052   28.5134 S   0  0  0  0  0  0  0  0  0  0  0  0
    2.5237   -2.0642   27.9438 O   0  0  0  0  0  0  0  0  0  0  0  0
    2.9089   -0.5959   29.9444 O   0  0  0  0  0  0  0  0  0  0  0  0
    1.9542    0.3865   27.8096 N   0  0  0  0  0  0  0  0  0  0  0  0
    0.5135    0.2847   28.1973 C   0  0  0  0  0  0  0  0  0  0  0  0
   -0.2446    1.6021   28.0727 C   0  0  0  0  0  0  0  0  0  0  0  0
   -0.2208    2.4251   26.7557 C   0  0  0  0  0  0  0  0  0  0  0  0
   -0.3247    3.6876   27.6395 C   0  0  0  0  0  0  0  0  0  0  0  0
    0.3502    2.8642   28.7579 C   0  0  0  0  0  0  0  0  0  0  0  0
    9.6791   -3.3307   26.7591 S   0  0  0  0  0  0  0  0  0  0  0  0
   10.2162   -6.0368   25.6411 H   0  0  0  0  0  0  0  0  0  0  0  0
   11.6361   -5.7128   26.6585 H   0  0  0  0  0  0  0  0  0  0  0  0
   11.7935   -5.7344   24.8967 H   0  0  0  0  0  0  0  0  0  0  0  0
   12.1823   -3.2001   24.1590 H   0  0  0  0  0  0  0  0  0  0  0  0
   11.3053   -0.8182   24.7741 H   0  0  0  0  0  0  0  0  0  0  0  0
    9.4737   -0.5225   27.9201 H   0  0  0  0  0  0  0  0  0  0  0  0
    9.2368    1.6367   26.6737 H   0  0  0  0  0  0  0  0  0  0  0  0
   10.8201    0.8920   26.4381 H   0  0  0  0  0  0  0  0  0  0  0  0
    9.5961    0.8157   25.1534 H   0  0  0  0  0  0  0  0  0  0  0  0
    7.7514   -1.7342   28.3809 H   0  0  0  0  0  0  0  0  0  0  0  0
    5.3320   -2.4237   27.6304 H   0  0  0  0  0  0  0  0  0  0  0  0
    5.5838   -1.7729   29.2515 H   0  0  0  0  0  0  0  0  0  0  0  0
    4.5084   -0.2529   26.8033 H   0  0  0  0  0  0  0  0  0  0  0  0
    4.9048    0.5458   28.3510 H   0  0  0  0  0  0  0  0  0  0  0  0
    2.0392    0.3467   26.7922 H   0  0  0  0  0  0  0  0  0  0  0  0
    0.4344   -0.0523   29.2369 H   0  0  0  0  0  0  0  0  0  0  0  0
    0.0384   -0.4728   27.5648 H   0  0  0  0  0  0  0  0  0  0  0  0
   -1.2824    1.4264   28.3998 H   0  0  0  0  0  0  0  0  0  0  0  0
    0.7171    2.3710   26.1931 H   0  0  0  0  0  0  0  0  0  0  0  0
   -1.0592    2.2570   26.0753 H   0  0  0  0  0  0  0  0  0  0  0  0
    0.2301    4.5615   27.2898 H   0  0  0  0  0  0  0  0  0  0  0  0
   -1.3550    3.9845   27.8680 H   0  0  0  0  0  0  0  0  0  0  0  0
    1.4445    2.9265   28.7436 H   0  0  0  0  0  0  0  0  0  0  0  0
    0.0028    3.0667   29.7735 H   0  0  0  0  0  0  0  0  0  0  0  0
  1  2  1  0
  2  3  2  0
  3  4  1  0
  4  5  2  0
  5  6  1  0
  6  7  1  0
  6  8  1  0
  8  9  2  0
  8 10  1  0
 10 11  1  0
 11 12  1  0
 12 13  1  0
 13 14  2  0
 13 15  2  0
 13 16  1  0
 16 17  1  0
 17 18  1  0
 18 19  1  0
 19 20  1  0
 20 21  1  0
  5 22  1  0
 22  2  1  0
 21 18  1  0
  1 23  1  0
  1 24  1  0
  1 25  1  0
  3 26  1  0
  4 27  1  0
  6 28  1  0
  7 29  1  0
  7 30  1  0
  7 31  1  0
 10 32  1  0
 11 33  1  0
 11 34  1  0
 12 35  1  0
 12 36  1  0
 16 37  1  0
 17 38  1  0
 17 39  1  0
 18 40  1  0
 19 41  1  0
 19 42  1  0
 20 43  1  0
 20 44  1  0
 21 45  1  0
 21 46  1  0
M  END
>  <Energy>  (888) 
-41.064409130038911

>  <compound_id>  (888) 
63567

>  <target_id>  (888) 
1

>  <reference_id>  (888) 
44

>  <inspiration_ids>  (888) 
[66, 44]

>  <energy_score>  (888) 
-44.25940123533249

>  <distance_score>  (888) 
7.510758006206925

>  <path>  (888) 
/opt/xchem-fragalysis-2/maxwin/BulkDock/SCRATCH/511025/C63567-P44/C63567-P44.minimised.mol

>  <scratch_subdir>  (888) 
/opt/xchem-fragalysis-2/maxwin/BulkDock/SCRATCH/511025/C63567-P44

>  <fragmenstein_runtime>  (888) 
14.943181276321411

>  <fragmenstein_outcome>  (888) 
too moved

>  <fragmenstein_mode>  (888) 
expansion

>  <fragmenstein_error>  (888) 


$$$$
C63568-P66
     RDKit          3D

 49 50  0  0  0  0  0  0  0  0999 V2000
   10.1583    8.7200   16.2845 C   0  0  0  0  0  0  0  0  0  0  0  0
   10.2354    7.4163   17.0586 C   0  0  0  0  0  0  0  0  0  0  0  0
    8.8844    6.3089   16.5453 S   0  0  0  0  0  0  0  0  0  0  0  0
    9.3176    4.8573   17.5627 C   0  0  0  0  0  0  0  0  0  0  0  0
   10.5720    4.1481   17.0368 C   0  0  0  0  0  0  0  0  0  0  0  0
   11.4858    3.9404   17.7836 O   0  0  0  0  0  0  0  0  0  0  0  0
   10.3759    3.7660   15.6630 N   0  0  0  0  0  0  0  0  0  0  0  0
   11.1717    2.9345   14.7862 C   0  0  0  0  0  0  0  0  0  0  0  0
   12.6967    3.0578   14.9571 C   0  0  0  0  0  0  0  0  0  0  0  0
   13.3665    1.8341   14.5537 N   0  0  0  0  0  0  0  0  0  0  0  0
   13.2534    1.0486   13.3557 C   0  0  0  0  0  0  0  0  0  0  0  0
   12.6357    1.2439   12.3482 O   0  0  0  0  0  0  0  0  0  0  0  0
   14.1371   -0.2007   13.4728 C   0  0  0  0  0  0  0  0  0  0  0  0
   13.6435   -1.1802   14.5076 C   0  0  0  0  0  0  0  0  0  0  0  0
   12.3589   -1.8169   14.4429 C   0  0  0  0  0  0  0  0  0  0  0  0
   12.1640   -2.7372   15.4455 C   0  0  0  0  0  0  0  0  0  0  0  0
   13.5126   -2.8407   16.4820 S   0  0  0  0  0  0  0  0  0  0  0  0
   14.3554   -1.6263   15.6140 C   0  0  0  0  0  0  0  0  0  0  0  0
   15.7152   -1.2209   16.0783 C   0  0  0  0  0  0  0  0  0  0  0  0
   13.2584    4.1730   14.0823 C   0  0  0  0  0  0  0  0  0  0  0  0
   14.7692    4.5110   14.2463 C   0  0  0  0  0  0  0  0  0  0  0  0
   14.3870    5.9872   14.0170 C   0  0  0  0  0  0  0  0  0  0  0  0
   12.9878    5.6289   14.5557 C   0  0  0  0  0  0  0  0  0  0  0  0
   10.2639    8.5541   15.2069 H   0  0  0  0  0  0  0  0  0  0  0  0
    9.2126    9.2416   16.4668 H   0  0  0  0  0  0  0  0  0  0  0  0
   10.9691    9.3865   16.5970 H   0  0  0  0  0  0  0  0  0  0  0  0
   10.1475    7.6161   18.1309 H   0  0  0  0  0  0  0  0  0  0  0  0
   11.1995    6.9370   16.8707 H   0  0  0  0  0  0  0  0  0  0  0  0
    8.4840    4.1475   17.5471 H   0  0  0  0  0  0  0  0  0  0  0  0
    9.4743    5.1682   18.6003 H   0  0  0  0  0  0  0  0  0  0  0  0
    9.4425    4.0445   15.3718 H   0  0  0  0  0  0  0  0  0  0  0  0
   10.8620    3.1609   13.7598 H   0  0  0  0  0  0  0  0  0  0  0  0
   10.8569    1.9077   14.9934 H   0  0  0  0  0  0  0  0  0  0  0  0
   12.9779    3.2093   16.0022 H   0  0  0  0  0  0  0  0  0  0  0  0
   13.9114    1.3187   15.2368 H   0  0  0  0  0  0  0  0  0  0  0  0
   15.1645    0.1214   13.6776 H   0  0  0  0  0  0  0  0  0  0  0  0
   14.1571   -0.6990   12.4953 H   0  0  0  0  0  0  0  0  0  0  0  0
   11.6192   -1.6260   13.6748 H   0  0  0  0  0  0  0  0  0  0  0  0
   11.3027   -3.3714   15.6003 H   0  0  0  0  0  0  0  0  0  0  0  0
   15.9562   -1.6183   17.0696 H   0  0  0  0  0  0  0  0  0  0  0  0
   16.4744   -1.5795   15.3755 H   0  0  0  0  0  0  0  0  0  0  0  0
   15.7872   -0.1297   16.1356 H   0  0  0  0  0  0  0  0  0  0  0  0
   12.9915    4.0410   13.0221 H   0  0  0  0  0  0  0  0  0  0  0  0
   15.4370    4.0745   13.4991 H   0  0  0  0  0  0  0  0  0  0  0  0
   15.1747    4.3134   15.2457 H   0  0  0  0  0  0  0  0  0  0  0  0
   14.3915    6.2867   12.9627 H   0  0  0  0  0  0  0  0  0  0  0  0
   14.9485    6.7211   14.6000 H   0  0  0  0  0  0  0  0  0  0  0  0
   12.1490    6.1386   14.0750 H   0  0  0  0  0  0  0  0  0  0  0  0
   12.9024    5.7449   15.6419 H   0  0  0  0  0  0  0  0  0  0  0  0
  1  2  1  0
  2  3  1  0
  3  4  1  0
  4  5  1  0
  5  6  2  0
  5  7  1  0
  7  8  1  0
  8  9  1  0
  9 10  1  0
 10 11  1  0
 11 12  2  0
 11 13  1  0
 13 14  1  0
 14 15  1  0
 15 16  2  0
 16 17  1  0
 17 18  1  0
 18 19  1  0
  9 20  1  0
 20 21  1  0
 21 22  1  0
 22 23  1  0
 18 14  2  0
 23 20  1  0
  1 24  1  0
  1 25  1  0
  1 26  1  0
  2 27  1  0
  2 28  1  0
  4 29  1  0
  4 30  1  0
  7 31  1  0
  8 32  1  0
  8 33  1  0
  9 34  1  0
 10 35  1  0
 13 36  1  0
 13 37  1  0
 15 38  1  0
 16 39  1  0
 19 40  1  0
 19 41  1  0
 19 42  1  0
 20 43  1  0
 21 44  1  0
 21 45  1  0
 22 46  1  0
 22 47  1  0
 23 48  1  0
 23 49  1  0
M  END
>  <Energy>  (889) 
55.745855670159031

>  <compound_id>  (889) 
63568

>  <target_id>  (889) 
1

>  <reference_id>  (889) 
66

>  <inspiration_ids>  (889) 
[66, 44]

>  <energy_score>  (889) 
-50.18293628841343

>  <distance_score>  (889) 
11.622951559544967

>  <path>  (889) 
/opt/xchem-fragalysis-2/maxwin/BulkDock/SCRATCH/511025/C63568-P66/C63568-P66.minimised.mol

>  <scratch_subdir>  (889) 
/opt/xchem-fragalysis-2/maxwin/BulkDock/SCRATCH/511025/C63568-P66

>  <fragmenstein_runtime>  (889) 
31.693426847457886

>  <fragmenstein_outcome>  (889) 
too moved

>  <fragmenstein_mode>  (889) 
expansion

>  <fragmenstein_error>  (889) 


$$$$
C63568-P44
     RDKit          3D

 49 50  0  0  0  0  0  0  0  0999 V2000
    8.8706    6.8749   16.6589 C   0  0  0  0  0  0  0  0  0  0  0  0
    8.9364    6.0786   15.3684 C   0  0  0  0  0  0  0  0  0  0  0  0
   10.6061    6.0712   14.6371 S   0  0  0  0  0  0  0  0  0  0  0  0
   11.4697    5.0488   15.8806 C   0  0  0  0  0  0  0  0  0  0  0  0
   12.8698    4.5861   15.4303 C   0  0  0  0  0  0  0  0  0  0  0  0
   13.7099    4.4196   16.2721 O   0  0  0  0  0  0  0  0  0  0  0  0
   12.8972    4.3379   14.0233 N   0  0  0  0  0  0  0  0  0  0  0  0
   13.9696    3.9001   13.1567 C   0  0  0  0  0  0  0  0  0  0  0  0
   14.7681    2.7146   13.7321 C   0  0  0  0  0  0  0  0  0  0  0  0
   13.9283    1.5763   14.0697 N   0  0  0  0  0  0  0  0  0  0  0  0
   12.8755    0.9305   13.3345 C   0  0  0  0  0  0  0  0  0  0  0  0
   12.3661    1.2131   12.2882 O   0  0  0  0  0  0  0  0  0  0  0  0
   12.3717   -0.3017   14.1093 C   0  0  0  0  0  0  0  0  0  0  0  0
   13.4142   -1.3816   14.2904 C   0  0  0  0  0  0  0  0  0  0  0  0
   14.4927   -1.6237   13.3734 C   0  0  0  0  0  0  0  0  0  0  0  0
   15.3352   -2.6278   13.7861 C   0  0  0  0  0  0  0  0  0  0  0  0
   14.8180   -3.3359   15.2420 S   0  0  0  0  0  0  0  0  0  0  0  0
   13.4480   -2.3103   15.3234 C   0  0  0  0  0  0  0  0  0  0  0  0
   12.4926   -2.5326   16.4427 C   0  0  0  0  0  0  0  0  0  0  0  0
   15.8515    2.1823   12.7930 C   0  0  0  0  0  0  0  0  0  0  0  0
   16.9329    3.1694   12.2658 C   0  0  0  0  0  0  0  0  0  0  0  0
   17.0097    2.2914   10.9994 C   0  0  0  0  0  0  0  0  0  0  0  0
   15.5597    1.8571   11.2979 C   0  0  0  0  0  0  0  0  0  0  0  0
    7.8361    6.9145   17.0164 H   0  0  0  0  0  0  0  0  0  0  0  0
    9.4701    6.4185   17.4521 H   0  0  0  0  0  0  0  0  0  0  0  0
    9.2098    7.9058   16.5128 H   0  0  0  0  0  0  0  0  0  0  0  0
    8.6047    5.0480   15.5301 H   0  0  0  0  0  0  0  0  0  0  0  0
    8.2593    6.5259   14.6335 H   0  0  0  0  0  0  0  0  0  0  0  0
   10.8783    4.1521   16.0877 H   0  0  0  0  0  0  0  0  0  0  0  0
   11.5872    5.6356   16.7962 H   0  0  0  0  0  0  0  0  0  0  0  0
   11.9726    4.5215   13.6367 H   0  0  0  0  0  0  0  0  0  0  0  0
   13.5116    3.6594   12.1936 H   0  0  0  0  0  0  0  0  0  0  0  0
   14.6244    4.7641   13.0100 H   0  0  0  0  0  0  0  0  0  0  0  0
   15.2428    3.0200   14.6714 H   0  0  0  0  0  0  0  0  0  0  0  0
   14.1620    1.0094   14.8807 H   0  0  0  0  0  0  0  0  0  0  0  0
   11.9996    0.0488   15.0786 H   0  0  0  0  0  0  0  0  0  0  0  0
   11.5207   -0.7251   13.5668 H   0  0  0  0  0  0  0  0  0  0  0  0
   14.6575   -1.0701   12.4566 H   0  0  0  0  0  0  0  0  0  0  0  0
   16.2275   -2.9875   13.2929 H   0  0  0  0  0  0  0  0  0  0  0  0
   12.1886   -3.5843   16.4955 H   0  0  0  0  0  0  0  0  0  0  0  0
   12.9470   -2.2589   17.3991 H   0  0  0  0  0  0  0  0  0  0  0  0
   11.5811   -1.9442   16.3079 H   0  0  0  0  0  0  0  0  0  0  0  0
   16.3465    1.3260   13.2840 H   0  0  0  0  0  0  0  0  0  0  0  0
   16.5853    4.1873   12.0613 H   0  0  0  0  0  0  0  0  0  0  0  0
   17.8504    3.2244   12.8577 H   0  0  0  0  0  0  0  0  0  0  0  0
   17.7383    1.4757   11.0710 H   0  0  0  0  0  0  0  0  0  0  0  0
   17.1625    2.8251   10.0583 H   0  0  0  0  0  0  0  0  0  0  0  0
   14.8123    2.4917   10.8114 H   0  0  0  0  0  0  0  0  0  0  0  0
   15.3321    0.8122   11.0752 H   0  0  0  0  0  0  0  0  0  0  0  0
  1  2  1  0
  2  3  1  0
  3  4  1  0
  4  5  1  0
  5  6  2  0
  5  7  1  0
  7  8  1  0
  8  9  1  0
  9 10  1  0
 10 11  1  0
 11 12  2  0
 11 13  1  0
 13 14  1  0
 14 15  1  0
 15 16  2  0
 16 17  1  0
 17 18  1  0
 18 19  1  0
  9 20  1  0
 20 21  1  0
 21 22  1  0
 22 23  1  0
 18 14  2  0
 23 20  1  0
  1 24  1  0
  1 25  1  0
  1 26  1  0
  2 27  1  0
  2 28  1  0
  4 29  1  0
  4 30  1  0
  7 31  1  0
  8 32  1  0
  8 33  1  0
  9 34  1  0
 10 35  1  0
 13 36  1  0
 13 37  1  0
 15 38  1  0
 16 39  1  0
 19 40  1  0
 19 41  1  0
 19 42  1  0
 20 43  1  0
 21 44  1  0
 21 45  1  0
 22 46  1  0
 22 47  1  0
 23 48  1  0
 23 49  1  0
M  END
>  <Energy>  (890) 
57.198630797823128

>  <compound_id>  (890) 
63568

>  <target_id>  (890) 
1

>  <reference_id>  (890) 
44

>  <inspiration_ids>  (890) 
[66, 44]

>  <energy_score>  (890) 
-48.73016116074837

>  <distance_score>  (890) 
13.215330577207292

>  <path>  (890) 
/opt/xchem-fragalysis-2/maxwin/BulkDock/SCRATCH/511025/C63568-P44/C63568-P44.minimised.mol

>  <scratch_subdir>  (890) 
/opt/xchem-fragalysis-2/maxwin/BulkDock/SCRATCH/511025/C63568-P44

>  <fragmenstein_runtime>  (890) 
25.60002326965332

>  <fragmenstein_outcome>  (890) 
too moved

>  <fragmenstein_mode>  (890) 
expansion

>  <fragmenstein_error>  (890) 


$$$$
C63569-P66
     RDKit          3D

 45 46  0  0  0  0  0  0  0  0999 V2000
    4.3411    0.8263   29.5116 C   0  0  0  0  0  0  0  0  0  0  0  0
    4.3474    1.4021   28.1646 N   0  0  0  0  0  0  0  0  0  0  0  0
    5.2775    0.6409   27.2782 C   0  0  0  0  0  0  0  0  0  0  0  0
    6.6564    1.3744   27.1273 C   0  0  0  0  0  0  0  0  0  0  0  0
    7.8164    0.5147   26.5243 C   0  0  0  0  0  0  0  0  0  0  0  0
    7.7786   -0.6712   26.6824 O   0  0  0  0  0  0  0  0  0  0  0  0
    8.8208    1.3544   25.8882 N   0  0  0  0  0  0  0  0  0  0  0  0
   10.1485    1.0209   25.3266 C   0  0  0  0  0  0  0  0  0  0  0  0
   10.5433    1.6381   23.9403 C   0  0  0  0  0  0  0  0  0  0  0  0
    9.8019    2.4692   23.4060 O   0  0  0  0  0  0  0  0  0  0  0  0
   11.8099    1.2743   23.2982 C   0  0  0  0  0  0  0  0  0  0  0  0
   12.2953    1.7959   22.1074 C   0  0  0  0  0  0  0  0  0  0  0  0
   13.5613    1.2584   21.7389 C   0  0  0  0  0  0  0  0  0  0  0  0
   13.9943    0.3207   22.6464 C   0  0  0  0  0  0  0  0  0  0  0  0
   12.9156    0.1597   23.9677 S   0  0  0  0  0  0  0  0  0  0  0  0
    2.9921    1.6493   27.6140 C   0  0  0  0  0  0  0  0  0  0  0  0
    1.9768    0.4854   27.7032 C   0  0  0  0  0  0  0  0  0  0  0  0
    0.5078    0.9394   27.6462 C   0  0  0  0  0  0  0  0  0  0  0  0
    0.3222    2.2591   26.9119 C   0  0  0  0  0  0  0  0  0  0  0  0
    1.1068    3.3866   27.5754 C   0  0  0  0  0  0  0  0  0  0  0  0
    2.3936    2.9174   28.2639 C   0  0  0  0  0  0  0  0  0  0  0  0
    5.3504    0.8727   29.9372 H   0  0  0  0  0  0  0  0  0  0  0  0
    4.0309   -0.2237   29.5241 H   0  0  0  0  0  0  0  0  0  0  0  0
    3.7002    1.3891   30.1964 H   0  0  0  0  0  0  0  0  0  0  0  0
    4.8490    0.5246   26.2768 H   0  0  0  0  0  0  0  0  0  0  0  0
    5.4238   -0.3812   27.6490 H   0  0  0  0  0  0  0  0  0  0  0  0
    6.5087    2.2829   26.5352 H   0  0  0  0  0  0  0  0  0  0  0  0
    7.0097    1.6857   28.1187 H   0  0  0  0  0  0  0  0  0  0  0  0
    8.4848    2.3106   25.8612 H   0  0  0  0  0  0  0  0  0  0  0  0
   10.1974   -0.0696   25.2635 H   0  0  0  0  0  0  0  0  0  0  0  0
   10.8774    1.3694   26.0655 H   0  0  0  0  0  0  0  0  0  0  0  0
   11.7539    2.5390   21.5312 H   0  0  0  0  0  0  0  0  0  0  0  0
   14.1164    1.5319   20.8506 H   0  0  0  0  0  0  0  0  0  0  0  0
   14.8995   -0.2699   22.6148 H   0  0  0  0  0  0  0  0  0  0  0  0
    3.1149    1.9007   26.5516 H   0  0  0  0  0  0  0  0  0  0  0  0
    2.1866   -0.2226   26.8932 H   0  0  0  0  0  0  0  0  0  0  0  0
    2.0881   -0.0894   28.6278 H   0  0  0  0  0  0  0  0  0  0  0  0
   -0.1030    0.1547   27.1879 H   0  0  0  0  0  0  0  0  0  0  0  0
    0.1331    1.0535   28.6719 H   0  0  0  0  0  0  0  0  0  0  0  0
   -0.7403    2.5239   26.8680 H   0  0  0  0  0  0  0  0  0  0  0  0
    0.6596    2.1542   25.8748 H   0  0  0  0  0  0  0  0  0  0  0  0
    1.3476    4.1410   26.8165 H   0  0  0  0  0  0  0  0  0  0  0  0
    0.4764    3.8924   28.3171 H   0  0  0  0  0  0  0  0  0  0  0  0
    2.1660    2.7261   29.3202 H   0  0  0  0  0  0  0  0  0  0  0  0
    3.1199    3.7399   28.2486 H   0  0  0  0  0  0  0  0  0  0  0  0
  1  2  1  0
  2  3  1  0
  3  4  1  0
  4  5  1  0
  5  6  2  0
  5  7  1  0
  7  8  1  0
  8  9  1  0
  9 10  2  0
  9 11  1  0
 11 12  2  0
 12 13  1  0
 13 14  2  0
 14 15  1  0
  2 16  1  0
 16 17  1  0
 17 18  1  0
 18 19  1  0
 19 20  1  0
 20 21  1  0
 15 11  1  0
 21 16  1  0
  1 22  1  0
  1 23  1  0
  1 24  1  0
  3 25  1  0
  3 26  1  0
  4 27  1  0
  4 28  1  0
  7 29  1  0
  8 30  1  0
  8 31  1  0
 12 32  1  0
 13 33  1  0
 14 34  1  0
 16 35  1  0
 17 36  1  0
 17 37  1  0
 18 38  1  0
 18 39  1  0
 19 40  1  0
 19 41  1  0
 20 42  1  0
 20 43  1  0
 21 44  1  0
 21 45  1  0
M  END
>  <Energy>  (891) 
57.673142780531279

>  <compound_id>  (891) 
63569

>  <target_id>  (891) 
1

>  <reference_id>  (891) 
66

>  <inspiration_ids>  (891) 
[66, 44]

>  <energy_score>  (891) 
-37.665926748485845

>  <distance_score>  (891) 
6.348143158966118

>  <path>  (891) 
/opt/xchem-fragalysis-2/maxwin/BulkDock/SCRATCH/511025/C63569-P66/C63569-P66.minimised.mol

>  <scratch_subdir>  (891) 
/opt/xchem-fragalysis-2/maxwin/BulkDock/SCRATCH/511025/C63569-P66

>  <fragmenstein_runtime>  (891) 
16.72328519821167

>  <fragmenstein_outcome>  (891) 
too moved

>  <fragmenstein_mode>  (891) 
expansion

>  <fragmenstein_error>  (891) 


$$$$
C63569-P44
     RDKit          3D

 45 46  0  0  0  0  0  0  0  0999 V2000
    4.1817   -0.7404   29.3563 C   0  0  0  0  0  0  0  0  0  0  0  0
    4.1332    0.3979   28.4306 N   0  0  0  0  0  0  0  0  0  0  0  0
    4.7434    0.0128   27.1291 C   0  0  0  0  0  0  0  0  0  0  0  0
    6.2952    0.2528   27.0538 C   0  0  0  0  0  0  0  0  0  0  0  0
    7.1947   -1.0104   26.9255 C   0  0  0  0  0  0  0  0  0  0  0  0
    6.7446   -2.0723   27.2518 O   0  0  0  0  0  0  0  0  0  0  0  0
    8.5181   -0.6520   26.4226 N   0  0  0  0  0  0  0  0  0  0  0  0
    9.7417   -1.4648   26.2512 C   0  0  0  0  0  0  0  0  0  0  0  0
   10.8843   -0.8882   25.3420 C   0  0  0  0  0  0  0  0  0  0  0  0
   10.9048    0.3271   25.1061 O   0  0  0  0  0  0  0  0  0  0  0  0
   11.9410   -1.7813   24.8315 C   0  0  0  0  0  0  0  0  0  0  0  0
   13.1542   -1.3873   24.2774 C   0  0  0  0  0  0  0  0  0  0  0  0
   13.8393   -2.4520   23.6180 C   0  0  0  0  0  0  0  0  0  0  0  0
   13.1667   -3.6447   23.7474 C   0  0  0  0  0  0  0  0  0  0  0  0
   11.7536   -3.4781   24.6985 S   0  0  0  0  0  0  0  0  0  0  0  0
    2.7682    0.9851   28.4002 C   0  0  0  0  0  0  0  0  0  0  0  0
    1.6750    0.1306   27.7369 C   0  0  0  0  0  0  0  0  0  0  0  0
    0.2974    0.8002   27.8117 C   0  0  0  0  0  0  0  0  0  0  0  0
    0.3050    2.2270   27.2718 C   0  0  0  0  0  0  0  0  0  0  0  0
    1.3961    3.0699   27.9210 C   0  0  0  0  0  0  0  0  0  0  0  0
    2.7717    2.4075   27.8022 C   0  0  0  0  0  0  0  0  0  0  0  0
    5.2175   -1.0662   29.5030 H   0  0  0  0  0  0  0  0  0  0  0  0
    3.6047   -1.6000   28.9997 H   0  0  0  0  0  0  0  0  0  0  0  0
    3.8092   -0.4576   30.3472 H   0  0  0  0  0  0  0  0  0  0  0  0
    4.3162    0.6442   26.3415 H   0  0  0  0  0  0  0  0  0  0  0  0
    4.4766   -1.0138   26.8498 H   0  0  0  0  0  0  0  0  0  0  0  0
    6.6376    0.8059   27.9368 H   0  0  0  0  0  0  0  0  0  0  0  0
    6.4868    0.8894   26.1810 H   0  0  0  0  0  0  0  0  0  0  0  0
    8.5753    0.3572   26.3270 H   0  0  0  0  0  0  0  0  0  0  0  0
   10.1601   -1.6051   27.2537 H   0  0  0  0  0  0  0  0  0  0  0  0
    9.4097   -2.4382   25.8892 H   0  0  0  0  0  0  0  0  0  0  0  0
   13.4713   -0.3509   24.2511 H   0  0  0  0  0  0  0  0  0  0  0  0
   14.7645   -2.3401   23.0669 H   0  0  0  0  0  0  0  0  0  0  0  0
   13.4481   -4.6099   23.3498 H   0  0  0  0  0  0  0  0  0  0  0  0
    2.4700    1.1227   29.4503 H   0  0  0  0  0  0  0  0  0  0  0  0
    1.9423   -0.0429   26.6931 H   0  0  0  0  0  0  0  0  0  0  0  0
    1.6049   -0.8524   28.2152 H   0  0  0  0  0  0  0  0  0  0  0  0
   -0.4345    0.2008   27.2591 H   0  0  0  0  0  0  0  0  0  0  0  0
   -0.0342    0.8153   28.8576 H   0  0  0  0  0  0  0  0  0  0  0  0
   -0.6727    2.6910   27.4450 H   0  0  0  0  0  0  0  0  0  0  0  0
    0.4599    2.2123   26.1879 H   0  0  0  0  0  0  0  0  0  0  0  0
    1.4240    4.0601   27.4522 H   0  0  0  0  0  0  0  0  0  0  0  0
    1.1565    3.2257   28.9801 H   0  0  0  0  0  0  0  0  0  0  0  0
    3.5105    3.0296   28.3224 H   0  0  0  0  0  0  0  0  0  0  0  0
    3.0598    2.3861   26.7447 H   0  0  0  0  0  0  0  0  0  0  0  0
  1  2  1  0
  2  3  1  0
  3  4  1  0
  4  5  1  0
  5  6  2  0
  5  7  1  0
  7  8  1  0
  8  9  1  0
  9 10  2  0
  9 11  1  0
 11 12  2  0
 12 13  1  0
 13 14  2  0
 14 15  1  0
  2 16  1  0
 16 17  1  0
 17 18  1  0
 18 19  1  0
 19 20  1  0
 20 21  1  0
 15 11  1  0
 21 16  1  0
  1 22  1  0
  1 23  1  0
  1 24  1  0
  3 25  1  0
  3 26  1  0
  4 27  1  0
  4 28  1  0
  7 29  1  0
  8 30  1  0
  8 31  1  0
 12 32  1  0
 13 33  1  0
 14 34  1  0
 16 35  1  0
 17 36  1  0
 17 37  1  0
 18 38  1  0
 18 39  1  0
 19 40  1  0
 19 41  1  0
 20 42  1  0
 20 43  1  0
 21 44  1  0
 21 45  1  0
M  END
>  <Energy>  (892) 
54.156751742695782

>  <compound_id>  (892) 
63569

>  <target_id>  (892) 
1

>  <reference_id>  (892) 
44

>  <inspiration_ids>  (892) 
[66, 44]

>  <energy_score>  (892) 
-41.1823177863227

>  <distance_score>  (892) 
6.814760577833816

>  <path>  (892) 
/opt/xchem-fragalysis-2/maxwin/BulkDock/SCRATCH/511025/C63569-P44/C63569-P44.minimised.mol

>  <scratch_subdir>  (892) 
/opt/xchem-fragalysis-2/maxwin/BulkDock/SCRATCH/511025/C63569-P44

>  <fragmenstein_runtime>  (892) 
14.692914962768555

>  <fragmenstein_outcome>  (892) 
too moved

>  <fragmenstein_mode>  (892) 
expansion

>  <fragmenstein_error>  (892) 


$$$$
C63571-P66
     RDKit          3D

 54 55  0  0  0  0  0  0  0  0999 V2000
    4.4630    0.5250   21.5478 C   0  0  0  0  0  0  0  0  0  0  0  0
    6.0183   -0.2311   21.1461 C   0  0  0  0  0  0  0  0  0  0  0  0
    5.4434   -1.7378   22.3258 C   0  0  0  0  0  0  0  0  0  0  0  0
    4.5038   -1.3106   23.7515 N   0  0  0  0  0  0  0  0  0  0  0  0
    3.8707   -2.1130   24.7348 C   0  0  0  0  0  0  0  0  0  0  0  0
    3.7443   -3.2927   24.8090 O   0  0  0  0  0  0  0  0  0  0  0  0
    3.2789   -1.2343   25.9921 C   0  0  0  0  0  0  0  0  0  0  0  0
    3.5200   -1.9528   27.3256 C   0  0  0  0  0  0  0  0  0  0  0  0
    3.5506    0.2872   26.1464 C   0  0  0  0  0  0  0  0  0  0  0  0
    3.0285    1.0005   27.4383 C   0  0  0  0  0  0  0  0  0  0  0  0
    1.5025    0.9328   27.6748 C   0  0  0  0  0  0  0  0  0  0  0  0
    0.6818    2.0255   26.9880 C   0  0  0  0  0  0  0  0  0  0  0  0
    1.2381    3.4129   27.2574 C   0  0  0  0  0  0  0  0  0  0  0  0
    2.6916    3.4820   26.8135 C   0  0  0  0  0  0  0  0  0  0  0  0
    3.5454    2.4514   27.5447 C   0  0  0  0  0  0  0  0  0  0  0  0
    6.5759   -0.1082   19.3922 N   0  0  0  0  0  0  0  0  0  0  0  0
    7.8036   -0.2748   18.8050 C   0  0  0  0  0  0  0  0  0  0  0  0
    8.8653   -0.4625   19.2861 O   0  0  0  0  0  0  0  0  0  0  0  0
    7.3258   -0.2595   16.8882 C   0  0  0  0  0  0  0  0  0  0  0  0
    8.1318   -1.0747   15.3641 C   0  0  0  0  0  0  0  0  0  0  0  0
    8.4628   -2.3623   14.9979 C   0  0  0  0  0  0  0  0  0  0  0  0
    9.8594   -2.5748   14.9099 C   0  0  0  0  0  0  0  0  0  0  0  0
   10.7590   -1.1536   14.5899 S   0  0  0  0  0  0  0  0  0  0  0  0
    8.9700   -0.3725   14.4008 C   0  0  0  0  0  0  0  0  0  0  0  0
    4.3461    0.9937   22.4904 H   0  0  0  0  0  0  0  0  0  0  0  0
    4.1404   -0.4261   21.7626 H   0  0  0  0  0  0  0  0  0  0  0  0
    3.5271    0.9909   21.2491 H   0  0  0  0  0  0  0  0  0  0  0  0
    6.3069    0.7774   21.4453 H   0  0  0  0  0  0  0  0  0  0  0  0
    6.0321   -2.2705   23.0419 H   0  0  0  0  0  0  0  0  0  0  0  0
    5.3655   -2.5859   21.6494 H   0  0  0  0  0  0  0  0  0  0  0  0
    4.3429   -0.3356   23.9705 H   0  0  0  0  0  0  0  0  0  0  0  0
    2.2076   -1.3126   25.8732 H   0  0  0  0  0  0  0  0  0  0  0  0
    3.1217   -2.9616   27.2757 H   0  0  0  0  0  0  0  0  0  0  0  0
    4.5850   -1.9949   27.5685 H   0  0  0  0  0  0  0  0  0  0  0  0
    2.9881   -1.5001   28.1649 H   0  0  0  0  0  0  0  0  0  0  0  0
    3.1322    0.8125   25.2861 H   0  0  0  0  0  0  0  0  0  0  0  0
    4.6381    0.4237   26.1101 H   0  0  0  0  0  0  0  0  0  0  0  0
    3.5074    0.4855   28.2804 H   0  0  0  0  0  0  0  0  0  0  0  0
    1.1031   -0.0500   27.4068 H   0  0  0  0  0  0  0  0  0  0  0  0
    1.3350    1.0323   28.7564 H   0  0  0  0  0  0  0  0  0  0  0  0
    0.6678    1.8708   25.9076 H   0  0  0  0  0  0  0  0  0  0  0  0
   -0.3579    1.9706   27.3302 H   0  0  0  0  0  0  0  0  0  0  0  0
    0.6489    4.1605   26.7147 H   0  0  0  0  0  0  0  0  0  0  0  0
    1.1578    3.6503   28.3249 H   0  0  0  0  0  0  0  0  0  0  0  0
    3.0861    4.4856   27.0092 H   0  0  0  0  0  0  0  0  0  0  0  0
    2.7541    3.3214   25.7316 H   0  0  0  0  0  0  0  0  0  0  0  0
    3.5666    2.7268   28.6081 H   0  0  0  0  0  0  0  0  0  0  0  0
    4.5834    2.5158   27.1985 H   0  0  0  0  0  0  0  0  0  0  0  0
    5.9005   -0.0576   18.6955 H   0  0  0  0  0  0  0  0  0  0  0  0
    6.3746   -0.7389   16.8747 H   0  0  0  0  0  0  0  0  0  0  0  0
    7.3007    0.7797   16.4749 H   0  0  0  0  0  0  0  0  0  0  0  0
    7.7926   -3.1537   15.1633 H   0  0  0  0  0  0  0  0  0  0  0  0
   10.3994   -3.5123   14.9366 H   0  0  0  0  0  0  0  0  0  0  0  0
    9.1450    0.6589   14.1610 H   0  0  0  0  0  0  0  0  0  0  0  0
  1  2  1  0
  2  3  1  0
  3  4  1  0
  4  5  1  0
  5  6  2  0
  5  7  1  0
  7  8  1  0
  7  9  1  0
  9 10  1  0
 10 11  1  0
 11 12  1  0
 12 13  1  0
 13 14  1  0
 14 15  1  0
  2 16  1  0
 16 17  1  0
 17 18  2  0
 17 19  1  0
 19 20  1  0
 20 21  1  0
 21 22  2  0
 22 23  1  0
 23 24  1  0
 15 10  1  0
 24 20  2  0
  1 25  1  0
  1 26  1  0
  1 27  1  0
  2 28  1  0
  3 29  1  0
  3 30  1  0
  4 31  1  0
  7 32  1  0
  8 33  1  0
  8 34  1  0
  8 35  1  0
  9 36  1  0
  9 37  1  0
 10 38  1  0
 11 39  1  0
 11 40  1  0
 12 41  1  0
 12 42  1  0
 13 43  1  0
 13 44  1  0
 14 45  1  0
 14 46  1  0
 15 47  1  0
 15 48  1  0
 16 49  1  0
 19 50  1  0
 19 51  1  0
 21 52  1  0
 22 53  1  0
 24 54  1  0
M  END
>  <Energy>  (893) 
431.69986962212107

>  <compound_id>  (893) 
63571

>  <target_id>  (893) 
1

>  <reference_id>  (893) 
66

>  <inspiration_ids>  (893) 
[66, 44]

>  <energy_score>  (893) 
351.41023423677257

>  <distance_score>  (893) 
4.621009571671255

>  <path>  (893) 
/opt/xchem-fragalysis-2/maxwin/BulkDock/SCRATCH/511025/C63571-P66/C63571-P66.minimised.mol

>  <scratch_subdir>  (893) 
/opt/xchem-fragalysis-2/maxwin/BulkDock/SCRATCH/511025/C63571-P66

>  <fragmenstein_runtime>  (893) 
21.15784525871277

>  <fragmenstein_outcome>  (893) 
too moved

>  <fragmenstein_mode>  (893) 
expansion

>  <fragmenstein_error>  (893) 


$$$$
C63571-P44
     RDKit          3D

 54 55  0  0  0  0  0  0  0  0999 V2000
    2.7884    1.7438   21.2565 C   0  0  0  0  0  0  0  0  0  0  0  0
    4.5435    0.8606   21.3976 C   0  0  0  0  0  0  0  0  0  0  0  0
    4.4735    1.4587   23.2615 C   0  0  0  0  0  0  0  0  0  0  0  0
    3.5964    1.3798   24.4532 N   0  0  0  0  0  0  0  0  0  0  0  0
    3.4017    2.3058   25.5557 C   0  0  0  0  0  0  0  0  0  0  0  0
    3.8414    3.4054   25.7392 O   0  0  0  0  0  0  0  0  0  0  0  0
    2.5476    1.6492   26.6959 C   0  0  0  0  0  0  0  0  0  0  0  0
    3.2129    1.8171   28.0635 C   0  0  0  0  0  0  0  0  0  0  0  0
    1.0568    2.0663   26.6664 C   0  0  0  0  0  0  0  0  0  0  0  0
    0.5277    3.1099   27.6707 C   0  0  0  0  0  0  0  0  0  0  0  0
   -1.0170    3.1256   27.6493 C   0  0  0  0  0  0  0  0  0  0  0  0
   -1.5918    3.7343   26.3734 C   0  0  0  0  0  0  0  0  0  0  0  0
   -1.0312    5.1311   26.1301 C   0  0  0  0  0  0  0  0  0  0  0  0
    0.4931    5.1499   26.1377 C   0  0  0  0  0  0  0  0  0  0  0  0
    1.0582    4.5278   27.4119 C   0  0  0  0  0  0  0  0  0  0  0  0
    6.1504    0.3971   20.1914 N   0  0  0  0  0  0  0  0  0  0  0  0
    7.3540    1.3989   19.4816 C   0  0  0  0  0  0  0  0  0  0  0  0
    7.5593    2.5920   19.6102 O   0  0  0  0  0  0  0  0  0  0  0  0
    8.0789    0.5172   18.5499 C   0  0  0  0  0  0  0  0  0  0  0  0
    8.7939    1.0147   17.3075 C   0  0  0  0  0  0  0  0  0  0  0  0
    9.0747    0.1786   16.1542 C   0  0  0  0  0  0  0  0  0  0  0  0
    9.7365    0.8299   15.1402 C   0  0  0  0  0  0  0  0  0  0  0  0
    9.9768    2.4707   15.5118 S   0  0  0  0  0  0  0  0  0  0  0  0
    9.2254    2.2991   17.0444 C   0  0  0  0  0  0  0  0  0  0  0  0
    2.5112    2.4852   20.4625 H   0  0  0  0  0  0  0  0  0  0  0  0
    1.9844    1.1563   21.0044 H   0  0  0  0  0  0  0  0  0  0  0  0
    2.6222    2.3188   22.1841 H   0  0  0  0  0  0  0  0  0  0  0  0
    4.4823   -0.2004   21.6573 H   0  0  0  0  0  0  0  0  0  0  0  0
    4.6513    2.5475   23.2818 H   0  0  0  0  0  0  0  0  0  0  0  0
    5.1065    0.6695   23.7028 H   0  0  0  0  0  0  0  0  0  0  0  0
    3.1407    0.5096   24.6693 H   0  0  0  0  0  0  0  0  0  0  0  0
    2.5683    0.5646   26.5234 H   0  0  0  0  0  0  0  0  0  0  0  0
    4.2302    1.4100   28.0393 H   0  0  0  0  0  0  0  0  0  0  0  0
    3.3013    2.8657   28.3597 H   0  0  0  0  0  0  0  0  0  0  0  0
    2.6583    1.2788   28.8389 H   0  0  0  0  0  0  0  0  0  0  0  0
    0.8044    2.3964   25.6542 H   0  0  0  0  0  0  0  0  0  0  0  0
    0.4809    1.1469   26.8428 H   0  0  0  0  0  0  0  0  0  0  0  0
    0.8263    2.8066   28.6811 H   0  0  0  0  0  0  0  0  0  0  0  0
   -1.4132    2.1125   27.7867 H   0  0  0  0  0  0  0  0  0  0  0  0
   -1.3708    3.7143   28.5032 H   0  0  0  0  0  0  0  0  0  0  0  0
   -1.3728    3.0912   25.5134 H   0  0  0  0  0  0  0  0  0  0  0  0
   -2.6834    3.7826   26.4531 H   0  0  0  0  0  0  0  0  0  0  0  0
   -1.4025    5.5177   25.1745 H   0  0  0  0  0  0  0  0  0  0  0  0
   -1.3937    5.8093   26.9116 H   0  0  0  0  0  0  0  0  0  0  0  0
    0.8428    6.1855   26.0540 H   0  0  0  0  0  0  0  0  0  0  0  0
    0.8747    4.6224   25.2562 H   0  0  0  0  0  0  0  0  0  0  0  0
    2.1502    4.5411   27.3690 H   0  0  0  0  0  0  0  0  0  0  0  0
    0.7816    5.1643   28.2630 H   0  0  0  0  0  0  0  0  0  0  0  0
    6.3131   -0.5759   19.9346 H   0  0  0  0  0  0  0  0  0  0  0  0
    7.2782   -0.0949   18.1657 H   0  0  0  0  0  0  0  0  0  0  0  0
    8.7026   -0.0340   19.2221 H   0  0  0  0  0  0  0  0  0  0  0  0
    8.7983   -0.8595   16.0463 H   0  0  0  0  0  0  0  0  0  0  0  0
   10.0570    0.4247   14.1894 H   0  0  0  0  0  0  0  0  0  0  0  0
    9.1416    3.1690   17.6843 H   0  0  0  0  0  0  0  0  0  0  0  0
  1  2  1  0
  2  3  1  0
  3  4  1  0
  4  5  1  0
  5  6  2  0
  5  7  1  0
  7  8  1  0
  7  9  1  0
  9 10  1  0
 10 11  1  0
 11 12  1  0
 12 13  1  0
 13 14  1  0
 14 15  1  0
  2 16  1  0
 16 17  1  0
 17 18  2  0
 17 19  1  0
 19 20  1  0
 20 21  1  0
 21 22  2  0
 22 23  1  0
 23 24  1  0
 15 10  1  0
 24 20  2  0
  1 25  1  0
  1 26  1  0
  1 27  1  0
  2 28  1  0
  3 29  1  0
  3 30  1  0
  4 31  1  0
  7 32  1  0
  8 33  1  0
  8 34  1  0
  8 35  1  0
  9 36  1  0
  9 37  1  0
 10 38  1  0
 11 39  1  0
 11 40  1  0
 12 41  1  0
 12 42  1  0
 13 43  1  0
 13 44  1  0
 14 45  1  0
 14 46  1  0
 15 47  1  0
 15 48  1  0
 16 49  1  0
 19 50  1  0
 19 51  1  0
 21 52  1  0
 22 53  1  0
 24 54  1  0
M  END
>  <Energy>  (894) 
341.61803083436462

>  <compound_id>  (894) 
63571

>  <target_id>  (894) 
1

>  <reference_id>  (894) 
44

>  <inspiration_ids>  (894) 
[66, 44]

>  <energy_score>  (894) 
261.3283954490115

>  <distance_score>  (894) 
4.444340598721758

>  <path>  (894) 
/opt/xchem-fragalysis-2/maxwin/BulkDock/SCRATCH/511025/C63571-P44/C63571-P44.minimised.mol

>  <scratch_subdir>  (894) 
/opt/xchem-fragalysis-2/maxwin/BulkDock/SCRATCH/511025/C63571-P44

>  <fragmenstein_runtime>  (894) 
20.908579111099243

>  <fragmenstein_outcome>  (894) 
too moved

>  <fragmenstein_mode>  (894) 
expansion

>  <fragmenstein_error>  (894) 


$$$$
C63572-P66
     RDKit          3D

 51 52  0  0  0  0  0  0  0  0999 V2000
   14.7774   -2.1869   12.5278 C   0  0  0  0  0  0  0  0  0  0  0  0
   14.1869   -1.4728   13.6936 C   0  0  0  0  0  0  0  0  0  0  0  0
   13.3830   -0.3601   13.6353 C   0  0  0  0  0  0  0  0  0  0  0  0
   13.3821    0.3703   14.8605 C   0  0  0  0  0  0  0  0  0  0  0  0
   12.8074    1.7590   14.9482 C   0  0  0  0  0  0  0  0  0  0  0  0
   13.6622    2.7830   15.7103 C   0  0  0  0  0  0  0  0  0  0  0  0
   14.7201    2.5644   16.1533 O   0  0  0  0  0  0  0  0  0  0  0  0
   12.8031    4.0821   15.7443 N   0  0  0  0  0  0  0  0  0  0  0  0
   13.1181    5.4111   16.2523 C   0  0  0  0  0  0  0  0  0  0  0  0
   13.7005    5.3400   17.6634 C   0  0  0  0  0  0  0  0  0  0  0  0
   11.8771    6.3173   16.2042 C   0  0  0  0  0  0  0  0  0  0  0  0
   10.7870    5.7917   16.9913 N   0  0  0  0  0  0  0  0  0  0  0  0
    9.4855    6.4698   17.4856 C   0  0  0  0  0  0  0  0  0  0  0  0
    9.1302    7.5777   17.3984 O   0  0  0  0  0  0  0  0  0  0  0  0
    8.6458    5.4023   18.2165 C   0  0  0  0  0  0  0  0  0  0  0  0
    8.1117    4.3680   17.2256 C   0  0  0  0  0  0  0  0  0  0  0  0
    9.4337    4.7843   19.3858 C   0  0  0  0  0  0  0  0  0  0  0  0
    8.5161    4.1078   20.4056 C   0  0  0  0  0  0  0  0  0  0  0  0
    9.2486    3.5887   21.6698 C   0  0  0  0  0  0  0  0  0  0  0  0
    8.8155    4.8751   22.3949 C   0  0  0  0  0  0  0  0  0  0  0  0
    7.6962    5.0266   21.3491 C   0  0  0  0  0  0  0  0  0  0  0  0
   14.0074   -0.3648   15.8542 C   0  0  0  0  0  0  0  0  0  0  0  0
   14.5673   -1.8837   15.3070 S   0  0  0  0  0  0  0  0  0  0  0  0
   14.0750   -2.9029   12.1027 H   0  0  0  0  0  0  0  0  0  0  0  0
   15.7079   -2.6921   12.7974 H   0  0  0  0  0  0  0  0  0  0  0  0
   15.0267   -1.4703   11.7365 H   0  0  0  0  0  0  0  0  0  0  0  0
   12.9971    0.0331   12.7035 H   0  0  0  0  0  0  0  0  0  0  0  0
   12.6821    2.1555   13.9315 H   0  0  0  0  0  0  0  0  0  0  0  0
   11.8106    1.7095   15.3944 H   0  0  0  0  0  0  0  0  0  0  0  0
   11.9651    3.9495   15.1883 H   0  0  0  0  0  0  0  0  0  0  0  0
   13.8831    5.8215   15.5835 H   0  0  0  0  0  0  0  0  0  0  0  0
   14.6499    4.7947   17.6679 H   0  0  0  0  0  0  0  0  0  0  0  0
   13.8944    6.3434   18.0566 H   0  0  0  0  0  0  0  0  0  0  0  0
   13.0249    4.8236   18.3542 H   0  0  0  0  0  0  0  0  0  0  0  0
   11.5064    6.4074   15.1772 H   0  0  0  0  0  0  0  0  0  0  0  0
   12.0986    7.3276   16.5633 H   0  0  0  0  0  0  0  0  0  0  0  0
   10.7349    4.7949   17.1617 H   0  0  0  0  0  0  0  0  0  0  0  0
    7.7782    5.9389   18.6231 H   0  0  0  0  0  0  0  0  0  0  0  0
    8.9052    3.7323   16.8215 H   0  0  0  0  0  0  0  0  0  0  0  0
    7.6284    4.8628   16.3759 H   0  0  0  0  0  0  0  0  0  0  0  0
    7.3686    3.7183   17.6971 H   0  0  0  0  0  0  0  0  0  0  0  0
   10.0305    5.5639   19.8767 H   0  0  0  0  0  0  0  0  0  0  0  0
   10.1484    4.0401   19.0147 H   0  0  0  0  0  0  0  0  0  0  0  0
    7.9140    3.3226   19.9341 H   0  0  0  0  0  0  0  0  0  0  0  0
    8.8066    2.6791   22.0885 H   0  0  0  0  0  0  0  0  0  0  0  0
   10.3284    3.4391   21.5822 H   0  0  0  0  0  0  0  0  0  0  0  0
    9.5637    5.6749   22.3589 H   0  0  0  0  0  0  0  0  0  0  0  0
    8.4833    4.7467   23.4282 H   0  0  0  0  0  0  0  0  0  0  0  0
    7.5154    6.0490   21.0074 H   0  0  0  0  0  0  0  0  0  0  0  0
    6.7411    4.5903   21.6622 H   0  0  0  0  0  0  0  0  0  0  0  0
   14.1933   -0.0765   16.8797 H   0  0  0  0  0  0  0  0  0  0  0  0
  1  2  1  0
  2  3  2  0
  3  4  1  0
  4  5  1  0
  5  6  1  0
  6  7  2  0
  6  8  1  0
  8  9  1  0
  9 10  1  0
  9 11  1  0
 11 12  1  0
 12 13  1  0
 13 14  2  0
 13 15  1  0
 15 16  1  0
 15 17  1  0
 17 18  1  0
 18 19  1  0
 19 20  1  0
 20 21  1  0
  4 22  2  0
 22 23  1  0
 23  2  1  0
 21 18  1  0
  1 24  1  0
  1 25  1  0
  1 26  1  0
  3 27  1  0
  5 28  1  0
  5 29  1  0
  8 30  1  0
  9 31  1  0
 10 32  1  0
 10 33  1  0
 10 34  1  0
 11 35  1  0
 11 36  1  0
 12 37  1  0
 15 38  1  0
 16 39  1  0
 16 40  1  0
 16 41  1  0
 17 42  1  0
 17 43  1  0
 18 44  1  0
 19 45  1  0
 19 46  1  0
 20 47  1  0
 20 48  1  0
 21 49  1  0
 21 50  1  0
 22 51  1  0
M  END
>  <Energy>  (895) 
61.953255601380839

>  <compound_id>  (895) 
63572

>  <target_id>  (895) 
1

>  <reference_id>  (895) 
66

>  <inspiration_ids>  (895) 
[66, 44]

>  <energy_score>  (895) 
-26.66853786837666

>  <distance_score>  (895) 
12.111311352098646

>  <path>  (895) 
/opt/xchem-fragalysis-2/maxwin/BulkDock/SCRATCH/511025/C63572-P66/C63572-P66.minimised.mol

>  <scratch_subdir>  (895) 
/opt/xchem-fragalysis-2/maxwin/BulkDock/SCRATCH/511025/C63572-P66

>  <fragmenstein_runtime>  (895) 
21.352558612823486

>  <fragmenstein_outcome>  (895) 
too moved

>  <fragmenstein_mode>  (895) 
expansion

>  <fragmenstein_error>  (895) 


$$$$
C63572-P44
     RDKit          3D

 51 52  0  0  0  0  0  0  0  0999 V2000
   12.1632   -3.9744   15.3558 C   0  0  0  0  0  0  0  0  0  0  0  0
   12.3777   -2.5206   15.1983 C   0  0  0  0  0  0  0  0  0  0  0  0
   11.4912   -1.4940   14.9847 C   0  0  0  0  0  0  0  0  0  0  0  0
   12.1115   -0.2029   14.9131 C   0  0  0  0  0  0  0  0  0  0  0  0
   11.3267    1.0858   14.7114 C   0  0  0  0  0  0  0  0  0  0  0  0
   12.0953    2.2736   14.0806 C   0  0  0  0  0  0  0  0  0  0  0  0
   12.9385    2.1357   13.2934 O   0  0  0  0  0  0  0  0  0  0  0  0
   11.5101    3.5823   14.7267 N   0  0  0  0  0  0  0  0  0  0  0  0
   11.9277    4.9850   14.5805 C   0  0  0  0  0  0  0  0  0  0  0  0
   13.1575    5.2299   15.4584 C   0  0  0  0  0  0  0  0  0  0  0  0
   10.8087    6.0429   14.8052 C   0  0  0  0  0  0  0  0  0  0  0  0
    9.9679    5.8152   15.9521 N   0  0  0  0  0  0  0  0  0  0  0  0
   10.2455    6.0208   17.4538 C   0  0  0  0  0  0  0  0  0  0  0  0
   11.2165    6.3564   18.0025 O   0  0  0  0  0  0  0  0  0  0  0  0
    8.9264    5.8005   18.2166 C   0  0  0  0  0  0  0  0  0  0  0  0
    8.2878    4.4323   17.9315 C   0  0  0  0  0  0  0  0  0  0  0  0
    7.9374    6.9477   17.9537 C   0  0  0  0  0  0  0  0  0  0  0  0
    7.9907    7.9768   19.0815 C   0  0  0  0  0  0  0  0  0  0  0  0
    6.9506    9.1193   19.0204 C   0  0  0  0  0  0  0  0  0  0  0  0
    6.7965    9.0162   20.5455 C   0  0  0  0  0  0  0  0  0  0  0  0
    7.3582    7.5748   20.4282 C   0  0  0  0  0  0  0  0  0  0  0  0
   13.4769   -0.3404   15.0732 C   0  0  0  0  0  0  0  0  0  0  0  0
   13.9784   -1.9311   15.3621 S   0  0  0  0  0  0  0  0  0  0  0  0
   13.0538   -4.5391   15.0425 H   0  0  0  0  0  0  0  0  0  0  0  0
   11.3074   -4.3146   14.7661 H   0  0  0  0  0  0  0  0  0  0  0  0
   12.0128   -4.2073   16.4103 H   0  0  0  0  0  0  0  0  0  0  0  0
   10.4188   -1.6551   14.8552 H   0  0  0  0  0  0  0  0  0  0  0  0
   10.9835    1.3661   15.7047 H   0  0  0  0  0  0  0  0  0  0  0  0
   10.4397    0.9100   14.0872 H   0  0  0  0  0  0  0  0  0  0  0  0
   10.7722    3.3360   15.3972 H   0  0  0  0  0  0  0  0  0  0  0  0
   12.2980    5.0960   13.5499 H   0  0  0  0  0  0  0  0  0  0  0  0
   13.5679    6.2456   15.3151 H   0  0  0  0  0  0  0  0  0  0  0  0
   13.9518    4.5254   15.2241 H   0  0  0  0  0  0  0  0  0  0  0  0
   12.9072    5.1332   16.5145 H   0  0  0  0  0  0  0  0  0  0  0  0
   11.2809    7.0231   14.9116 H   0  0  0  0  0  0  0  0  0  0  0  0
   10.1555    6.0897   13.9334 H   0  0  0  0  0  0  0  0  0  0  0  0
    8.9629    5.5761   15.8154 H   0  0  0  0  0  0  0  0  0  0  0  0
    9.2123    5.7729   19.2758 H   0  0  0  0  0  0  0  0  0  0  0  0
    7.7807    4.3916   16.9525 H   0  0  0  0  0  0  0  0  0  0  0  0
    9.0255    3.6260   17.9824 H   0  0  0  0  0  0  0  0  0  0  0  0
    7.5267    4.2327   18.6864 H   0  0  0  0  0  0  0  0  0  0  0  0
    6.9217    6.5591   17.8547 H   0  0  0  0  0  0  0  0  0  0  0  0
    8.1717    7.4553   17.0099 H   0  0  0  0  0  0  0  0  0  0  0  0
    8.9935    8.3768   19.2341 H   0  0  0  0  0  0  0  0  0  0  0  0
    7.3119   10.0713   18.6523 H   0  0  0  0  0  0  0  0  0  0  0  0
    6.0307    8.8700   18.4660 H   0  0  0  0  0  0  0  0  0  0  0  0
    5.7785    9.0751   20.9144 H   0  0  0  0  0  0  0  0  0  0  0  0
    7.4404    9.7068   21.0904 H   0  0  0  0  0  0  0  0  0  0  0  0
    6.5828    6.8124   20.3609 H   0  0  0  0  0  0  0  0  0  0  0  0
    8.0673    7.2741   21.2000 H   0  0  0  0  0  0  0  0  0  0  0  0
   14.2181    0.4446   15.0712 H   0  0  0  0  0  0  0  0  0  0  0  0
  1  2  1  0
  2  3  2  0
  3  4  1  0
  4  5  1  0
  5  6  1  0
  6  7  2  0
  6  8  1  0
  8  9  1  0
  9 10  1  0
  9 11  1  0
 11 12  1  0
 12 13  1  0
 13 14  2  0
 13 15  1  0
 15 16  1  0
 15 17  1  0
 17 18  1  0
 18 19  1  0
 19 20  1  0
 20 21  1  0
  4 22  2  0
 22 23  1  0
 23  2  1  0
 21 18  1  0
  1 24  1  0
  1 25  1  0
  1 26  1  0
  3 27  1  0
  5 28  1  0
  5 29  1  0
  8 30  1  0
  9 31  1  0
 10 32  1  0
 10 33  1  0
 10 34  1  0
 11 35  1  0
 11 36  1  0
 12 37  1  0
 15 38  1  0
 16 39  1  0
 16 40  1  0
 16 41  1  0
 17 42  1  0
 17 43  1  0
 18 44  1  0
 19 45  1  0
 19 46  1  0
 20 47  1  0
 20 48  1  0
 21 49  1  0
 21 50  1  0
 22 51  1  0
M  END
>  <Energy>  (896) 
63.265158247064406

>  <compound_id>  (896) 
63572

>  <target_id>  (896) 
1

>  <reference_id>  (896) 
44

>  <inspiration_ids>  (896) 
[66, 44]

>  <energy_score>  (896) 
-25.3566352226903

>  <distance_score>  (896) 
12.241807943162017

>  <path>  (896) 
/opt/xchem-fragalysis-2/maxwin/BulkDock/SCRATCH/511025/C63572-P44/C63572-P44.minimised.mol

>  <scratch_subdir>  (896) 
/opt/xchem-fragalysis-2/maxwin/BulkDock/SCRATCH/511025/C63572-P44

>  <fragmenstein_runtime>  (896) 
12.858859062194824

>  <fragmenstein_outcome>  (896) 
too moved

>  <fragmenstein_mode>  (896) 
expansion

>  <fragmenstein_error>  (896) 


$$$$
C26116-P66
     RDKit          3D

 53 54  0  0  0  0  0  0  0  0999 V2000
   11.8668    3.8163   17.9141 C   0  0  0  0  0  0  0  0  0  0  0  0
   11.3039    3.4148   19.2354 C   0  0  0  0  0  0  0  0  0  0  0  0
   10.0251    3.6595   19.7069 C   0  0  0  0  0  0  0  0  0  0  0  0
    9.8641    3.4496   21.1419 C   0  0  0  0  0  0  0  0  0  0  0  0
    8.6068    4.0468   21.9737 C   0  0  0  0  0  0  0  0  0  0  0  0
    8.4991    3.9401   23.5789 C   0  0  0  0  0  0  0  0  0  0  0  0
    9.3855    3.4478   24.1893 O   0  0  0  0  0  0  0  0  0  0  0  0
    7.0586    4.4750   24.0789 N   0  0  0  0  0  0  0  0  0  0  0  0
    6.3819    4.4008   25.4942 C   0  0  0  0  0  0  0  0  0  0  0  0
    7.1274    5.3840   26.3997 C   0  0  0  0  0  0  0  0  0  0  0  0
    4.7660    4.6676   25.6233 C   0  0  0  0  0  0  0  0  0  0  0  0
    3.7812    3.6698   26.2640 N   0  0  0  0  0  0  0  0  0  0  0  0
    3.3215    3.5048   27.7684 C   0  0  0  0  0  0  0  0  0  0  0  0
    3.6891    4.0568   28.7427 O   0  0  0  0  0  0  0  0  0  0  0  0
    2.0241    2.3968   27.9583 C   0  0  0  0  0  0  0  0  0  0  0  0
    2.4073    0.9536   27.5844 C   0  0  0  0  0  0  0  0  0  0  0  0
    1.6787    2.3096   29.4901 C   0  0  0  0  0  0  0  0  0  0  0  0
    0.8320    2.7925   27.1299 N   0  0  0  0  0  0  0  0  0  0  0  0
   -0.3499    1.9092   27.2449 C   0  0  0  0  0  0  0  0  0  0  0  0
   -1.4607    2.6846   26.5502 C   0  0  0  0  0  0  0  0  0  0  0  0
   -1.0268    4.1397   26.6486 C   0  0  0  0  0  0  0  0  0  0  0  0
    0.2859    4.1189   27.4305 C   0  0  0  0  0  0  0  0  0  0  0  0
   10.9814    2.7537   21.5887 C   0  0  0  0  0  0  0  0  0  0  0  0
   12.2910    2.7551   20.4606 S   0  0  0  0  0  0  0  0  0  0  0  0
   12.8687    3.4098   17.7443 H   0  0  0  0  0  0  0  0  0  0  0  0
   11.9396    4.9080   17.8592 H   0  0  0  0  0  0  0  0  0  0  0  0
   11.2169    3.4837   17.0985 H   0  0  0  0  0  0  0  0  0  0  0  0
    9.2657    4.1305   19.0932 H   0  0  0  0  0  0  0  0  0  0  0  0
    7.7130    3.6024   21.5290 H   0  0  0  0  0  0  0  0  0  0  0  0
    8.5916    5.1217   21.7494 H   0  0  0  0  0  0  0  0  0  0  0  0
    6.5062    4.7641   23.2801 H   0  0  0  0  0  0  0  0  0  0  0  0
    6.5905    3.3996   25.8833 H   0  0  0  0  0  0  0  0  0  0  0  0
    6.7578    5.3254   27.4286 H   0  0  0  0  0  0  0  0  0  0  0  0
    7.0034    6.4128   26.0448 H   0  0  0  0  0  0  0  0  0  0  0  0
    8.2006    5.1659   26.4146 H   0  0  0  0  0  0  0  0  0  0  0  0
    4.6283    5.5776   26.2195 H   0  0  0  0  0  0  0  0  0  0  0  0
    4.3626    4.8857   24.6296 H   0  0  0  0  0  0  0  0  0  0  0  0
    3.1948    3.0927   25.6628 H   0  0  0  0  0  0  0  0  0  0  0  0
    3.3432    0.6725   28.0824 H   0  0  0  0  0  0  0  0  0  0  0  0
    2.6013    0.8699   26.5098 H   0  0  0  0  0  0  0  0  0  0  0  0
    1.6523    0.2109   27.8618 H   0  0  0  0  0  0  0  0  0  0  0  0
    0.9005    1.5746   29.7144 H   0  0  0  0  0  0  0  0  0  0  0  0
    2.5702    2.0109   30.0557 H   0  0  0  0  0  0  0  0  0  0  0  0
    1.3708    3.2787   29.8940 H   0  0  0  0  0  0  0  0  0  0  0  0
   -0.6471    1.7425   28.2855 H   0  0  0  0  0  0  0  0  0  0  0  0
   -0.2028    0.9371   26.7718 H   0  0  0  0  0  0  0  0  0  0  0  0
   -1.5481    2.3933   25.4977 H   0  0  0  0  0  0  0  0  0  0  0  0
   -2.4302    2.5153   27.0301 H   0  0  0  0  0  0  0  0  0  0  0  0
   -0.8703    4.5490   25.6435 H   0  0  0  0  0  0  0  0  0  0  0  0
   -1.7816    4.7563   27.1477 H   0  0  0  0  0  0  0  0  0  0  0  0
    0.0651    4.2581   28.4940 H   0  0  0  0  0  0  0  0  0  0  0  0
    0.9477    4.9264   27.1028 H   0  0  0  0  0  0  0  0  0  0  0  0
   11.1684    2.3905   22.5912 H   0  0  0  0  0  0  0  0  0  0  0  0
  1  2  1  0
  2  3  2  0
  3  4  1  0
  4  5  1  0
  5  6  1  0
  6  7  2  0
  6  8  1  0
  8  9  1  0
  9 10  1  0
  9 11  1  0
 11 12  1  0
 12 13  1  0
 13 14  2  0
 13 15  1  0
 15 16  1  0
 15 17  1  0
 15 18  1  0
 18 19  1  0
 19 20  1  0
 20 21  1  0
 21 22  1  0
  4 23  2  0
 23 24  1  0
 24  2  1  0
 22 18  1  0
  1 25  1  0
  1 26  1  0
  1 27  1  0
  3 28  1  0
  5 29  1  0
  5 30  1  0
  8 31  1  0
  9 32  1  0
 10 33  1  0
 10 34  1  0
 10 35  1  0
 11 36  1  0
 11 37  1  0
 12 38  1  0
 16 39  1  0
 16 40  1  0
 16 41  1  0
 17 42  1  0
 17 43  1  0
 17 44  1  0
 19 45  1  0
 19 46  1  0
 20 47  1  0
 20 48  1  0
 21 49  1  0
 21 50  1  0
 22 51  1  0
 22 52  1  0
 23 53  1  0
M  END
>  <Energy>  (897) 
141.79368830912185

>  <compound_id>  (897) 
26116

>  <target_id>  (897) 
1

>  <reference_id>  (897) 
66

>  <inspiration_ids>  (897) 
[66, 44]

>  <energy_score>  (897) 
32.62649448477697

>  <distance_score>  (897) 
5.3154087956758564

>  <path>  (897) 
/opt/xchem-fragalysis-2/maxwin/BulkDock/SCRATCH/511025/C26116-P66/C26116-P66.minimised.mol

>  <scratch_subdir>  (897) 
/opt/xchem-fragalysis-2/maxwin/BulkDock/SCRATCH/511025/C26116-P66

>  <fragmenstein_runtime>  (897) 
15.460414409637451

>  <fragmenstein_outcome>  (897) 
too moved

>  <fragmenstein_mode>  (897) 
expansion

>  <fragmenstein_error>  (897) 


$$$$
C26116-P44
     RDKit          3D

 53 54  0  0  0  0  0  0  0  0999 V2000
   10.3219   -1.4740   14.9784 C   0  0  0  0  0  0  0  0  0  0  0  0
    9.9941   -0.0932   15.4179 C   0  0  0  0  0  0  0  0  0  0  0  0
    8.9883    0.3306   16.2626 C   0  0  0  0  0  0  0  0  0  0  0  0
    9.2364    1.6174   16.8172 C   0  0  0  0  0  0  0  0  0  0  0  0
    8.5739    2.2805   18.0102 C   0  0  0  0  0  0  0  0  0  0  0  0
    7.9186    1.4401   19.1671 C   0  0  0  0  0  0  0  0  0  0  0  0
    7.9111    0.2405   19.2252 O   0  0  0  0  0  0  0  0  0  0  0  0
    7.2726    2.4570   20.0408 N   0  0  0  0  0  0  0  0  0  0  0  0
    6.0999    2.2749   21.4883 C   0  0  0  0  0  0  0  0  0  0  0  0
    5.1011    3.7251   22.5614 C   0  0  0  0  0  0  0  0  0  0  0  0
    4.7359    1.2018   22.4963 C   0  0  0  0  0  0  0  0  0  0  0  0
    4.0005    1.7677   23.7970 N   0  0  0  0  0  0  0  0  0  0  0  0
    4.4817    1.9703   25.1513 C   0  0  0  0  0  0  0  0  0  0  0  0
    5.5825    1.8404   25.6200 O   0  0  0  0  0  0  0  0  0  0  0  0
    3.2887    2.3245   26.1906 C   0  0  0  0  0  0  0  0  0  0  0  0
    3.0135    0.9709   26.9181 C   0  0  0  0  0  0  0  0  0  0  0  0
    3.8242    3.2888   27.2717 C   0  0  0  0  0  0  0  0  0  0  0  0
    2.0425    2.8094   25.5093 N   0  0  0  0  0  0  0  0  0  0  0  0
    0.8208    2.7560   26.3433 C   0  0  0  0  0  0  0  0  0  0  0  0
   -0.1985    3.5779   25.5632 C   0  0  0  0  0  0  0  0  0  0  0  0
    0.6347    4.4260   24.6136 C   0  0  0  0  0  0  0  0  0  0  0  0
    2.0718    4.2068   25.0655 C   0  0  0  0  0  0  0  0  0  0  0  0
   10.1441    2.2689   15.9929 C   0  0  0  0  0  0  0  0  0  0  0  0
   10.9134    1.2328   14.8701 S   0  0  0  0  0  0  0  0  0  0  0  0
    9.4107   -2.0386   14.7639 H   0  0  0  0  0  0  0  0  0  0  0  0
   10.8567   -1.9918   15.7820 H   0  0  0  0  0  0  0  0  0  0  0  0
   10.9806   -1.4941   14.1058 H   0  0  0  0  0  0  0  0  0  0  0  0
    8.1742   -0.2945   16.5720 H   0  0  0  0  0  0  0  0  0  0  0  0
    7.8005    2.9482   17.6069 H   0  0  0  0  0  0  0  0  0  0  0  0
    9.3202    2.9223   18.4955 H   0  0  0  0  0  0  0  0  0  0  0  0
    7.5578    3.3783   19.7453 H   0  0  0  0  0  0  0  0  0  0  0  0
    5.8487    3.2232   20.8334 H   0  0  0  0  0  0  0  0  0  0  0  0
    5.1217    4.7028   22.0252 H   0  0  0  0  0  0  0  0  0  0  0  0
    5.4642    3.7893   23.6031 H   0  0  0  0  0  0  0  0  0  0  0  0
    4.0062    3.6082   22.6386 H   0  0  0  0  0  0  0  0  0  0  0  0
    5.0823    0.2778   23.0070 H   0  0  0  0  0  0  0  0  0  0  0  0
    4.1135    0.9651   21.6303 H   0  0  0  0  0  0  0  0  0  0  0  0
    2.9949    1.8909   23.7821 H   0  0  0  0  0  0  0  0  0  0  0  0
    3.9324    0.5877   27.3801 H   0  0  0  0  0  0  0  0  0  0  0  0
    2.6848    0.1949   26.2242 H   0  0  0  0  0  0  0  0  0  0  0  0
    2.2766    1.0663   27.7221 H   0  0  0  0  0  0  0  0  0  0  0  0
    3.0585    3.5641   28.0033 H   0  0  0  0  0  0  0  0  0  0  0  0
    4.6526    2.8385   27.8321 H   0  0  0  0  0  0  0  0  0  0  0  0
    4.2230    4.2056   26.8236 H   0  0  0  0  0  0  0  0  0  0  0  0
    0.9747    3.2172   27.3257 H   0  0  0  0  0  0  0  0  0  0  0  0
    0.4490    1.7397   26.5000 H   0  0  0  0  0  0  0  0  0  0  0  0
   -0.8843    2.9394   24.9960 H   0  0  0  0  0  0  0  0  0  0  0  0
   -0.7964    4.2012   26.2365 H   0  0  0  0  0  0  0  0  0  0  0  0
    0.4992    4.0724   23.5841 H   0  0  0  0  0  0  0  0  0  0  0  0
    0.3497    5.4820   24.6474 H   0  0  0  0  0  0  0  0  0  0  0  0
    2.2983    4.9056   25.8792 H   0  0  0  0  0  0  0  0  0  0  0  0
    2.7727    4.3870   24.2504 H   0  0  0  0  0  0  0  0  0  0  0  0
   10.4610    3.3010   16.0576 H   0  0  0  0  0  0  0  0  0  0  0  0
  1  2  1  0
  2  3  2  0
  3  4  1  0
  4  5  1  0
  5  6  1  0
  6  7  2  0
  6  8  1  0
  8  9  1  0
  9 10  1  0
  9 11  1  0
 11 12  1  0
 12 13  1  0
 13 14  2  0
 13 15  1  0
 15 16  1  0
 15 17  1  0
 15 18  1  0
 18 19  1  0
 19 20  1  0
 20 21  1  0
 21 22  1  0
  4 23  2  0
 23 24  1  0
 24  2  1  0
 22 18  1  0
  1 25  1  0
  1 26  1  0
  1 27  1  0
  3 28  1  0
  5 29  1  0
  5 30  1  0
  8 31  1  0
  9 32  1  0
 10 33  1  0
 10 34  1  0
 10 35  1  0
 11 36  1  0
 11 37  1  0
 12 38  1  0
 16 39  1  0
 16 40  1  0
 16 41  1  0
 17 42  1  0
 17 43  1  0
 17 44  1  0
 19 45  1  0
 19 46  1  0
 20 47  1  0
 20 48  1  0
 21 49  1  0
 21 50  1  0
 22 51  1  0
 22 52  1  0
 23 53  1  0
M  END
>  <Energy>  (898) 
382.11251429043733

>  <compound_id>  (898) 
26116

>  <target_id>  (898) 
1

>  <reference_id>  (898) 
44

>  <inspiration_ids>  (898) 
[66, 44]

>  <energy_score>  (898) 
264.5302116002039

>  <distance_score>  (898) 
4.7118232920882575

>  <path>  (898) 
/opt/xchem-fragalysis-2/maxwin/BulkDock/SCRATCH/511025/C26116-P44/C26116-P44.minimised.mol

>  <scratch_subdir>  (898) 
/opt/xchem-fragalysis-2/maxwin/BulkDock/SCRATCH/511025/C26116-P44

>  <fragmenstein_runtime>  (898) 
16.400574207305908

>  <fragmenstein_outcome>  (898) 
too moved

>  <fragmenstein_mode>  (898) 
expansion

>  <fragmenstein_error>  (898) 


$$$$
C63573-P66
     RDKit          3D

 54 55  0  0  0  0  0  0  0  0999 V2000
   10.0133    0.8852   14.0359 C   0  0  0  0  0  0  0  0  0  0  0  0
    9.6073   -0.5007   14.4579 C   0  0  0  0  0  0  0  0  0  0  0  0
   11.0916   -1.5441   14.6540 S   0  0  0  0  0  0  0  0  0  0  0  0
   10.0521   -2.8421   14.8786 C   0  0  0  0  0  0  0  0  0  0  0  0
    8.6980   -2.4811   14.9188 C   0  0  0  0  0  0  0  0  0  0  0  0
    8.4755   -1.1516   15.1869 C   0  0  0  0  0  0  0  0  0  0  0  0
    7.2755   -0.4176   16.4627 C   0  0  0  0  0  0  0  0  0  0  0  0
    6.3419   -0.8473   18.0407 C   0  0  0  0  0  0  0  0  0  0  0  0
    5.2609   -1.3239   17.7506 O   0  0  0  0  0  0  0  0  0  0  0  0
    6.9409   -0.6602   19.6854 N   0  0  0  0  0  0  0  0  0  0  0  0
    6.0793   -0.9990   21.3729 C   0  0  0  0  0  0  0  0  0  0  0  0
    5.8910   -2.5323   20.9205 C   0  0  0  0  0  0  0  0  0  0  0  0
    5.1904   -1.7247   23.0534 C   0  0  0  0  0  0  0  0  0  0  0  0
    4.4948   -0.9625   24.3019 N   0  0  0  0  0  0  0  0  0  0  0  0
    3.7616   -1.4764   25.4442 C   0  0  0  0  0  0  0  0  0  0  0  0
    3.5526   -2.5995   25.7954 O   0  0  0  0  0  0  0  0  0  0  0  0
    3.2922   -0.2799   26.3590 C   0  0  0  0  0  0  0  0  0  0  0  0
    4.4727    0.1348   27.2352 C   0  0  0  0  0  0  0  0  0  0  0  0
    2.0703   -0.5919   27.2745 C   0  0  0  0  0  0  0  0  0  0  0  0
    1.1492    0.6225   27.5336 C   0  0  0  0  0  0  0  0  0  0  0  0
   -0.2423    0.2187   28.0257 C   0  0  0  0  0  0  0  0  0  0  0  0
   -0.8442    1.5292   28.5129 C   0  0  0  0  0  0  0  0  0  0  0  0
    0.3372    2.3578   29.0143 C   0  0  0  0  0  0  0  0  0  0  0  0
    1.6003    1.5803   28.6347 C   0  0  0  0  0  0  0  0  0  0  0  0
   11.0941    1.0527   14.1148 H   0  0  0  0  0  0  0  0  0  0  0  0
    9.5570    1.6624   14.6516 H   0  0  0  0  0  0  0  0  0  0  0  0
    9.7610    1.0318   12.9865 H   0  0  0  0  0  0  0  0  0  0  0  0
   10.4801   -3.8318   14.9461 H   0  0  0  0  0  0  0  0  0  0  0  0
    7.9164   -3.1572   15.0969 H   0  0  0  0  0  0  0  0  0  0  0  0
    7.1389    0.6254   16.1530 H   0  0  0  0  0  0  0  0  0  0  0  0
    6.6968   -0.9931   15.7898 H   0  0  0  0  0  0  0  0  0  0  0  0
    7.8184   -0.1662   19.6605 H   0  0  0  0  0  0  0  0  0  0  0  0
    5.4003   -0.1502   21.2418 H   0  0  0  0  0  0  0  0  0  0  0  0
    6.8339   -3.0393   21.0282 H   0  0  0  0  0  0  0  0  0  0  0  0
    5.4544   -2.9014   19.9890 H   0  0  0  0  0  0  0  0  0  0  0  0
    5.2583   -2.9926   21.5676 H   0  0  0  0  0  0  0  0  0  0  0  0
    5.8946   -2.3155   23.6143 H   0  0  0  0  0  0  0  0  0  0  0  0
    4.2820   -2.2844   23.0005 H   0  0  0  0  0  0  0  0  0  0  0  0
    4.3934    0.0484   24.2703 H   0  0  0  0  0  0  0  0  0  0  0  0
    3.0400    0.5628   25.7070 H   0  0  0  0  0  0  0  0  0  0  0  0
    5.3435    0.3970   26.6253 H   0  0  0  0  0  0  0  0  0  0  0  0
    4.7804   -0.6834   27.8963 H   0  0  0  0  0  0  0  0  0  0  0  0
    4.2378    1.0037   27.8538 H   0  0  0  0  0  0  0  0  0  0  0  0
    1.4752   -1.3843   26.8160 H   0  0  0  0  0  0  0  0  0  0  0  0
    2.4086   -1.0127   28.2303 H   0  0  0  0  0  0  0  0  0  0  0  0
    1.0294    1.2103   26.6166 H   0  0  0  0  0  0  0  0  0  0  0  0
   -0.8530   -0.2354   27.2417 H   0  0  0  0  0  0  0  0  0  0  0  0
   -0.1688   -0.4948   28.8557 H   0  0  0  0  0  0  0  0  0  0  0  0
   -1.3376    2.0505   27.6842 H   0  0  0  0  0  0  0  0  0  0  0  0
   -1.5938    1.3627   29.2923 H   0  0  0  0  0  0  0  0  0  0  0  0
    0.3310    3.3460   28.5409 H   0  0  0  0  0  0  0  0  0  0  0  0
    0.2883    2.5137   30.0971 H   0  0  0  0  0  0  0  0  0  0  0  0
    2.3925    2.2568   28.3014 H   0  0  0  0  0  0  0  0  0  0  0  0
    1.9709    1.0273   29.5061 H   0  0  0  0  0  0  0  0  0  0  0  0
  1  2  1  0
  2  3  1  0
  3  4  1  0
  4  5  2  0
  5  6  1  0
  6  7  1  0
  7  8  1  0
  8  9  2  0
  8 10  1  0
 10 11  1  0
 11 12  1  0
 11 13  1  0
 13 14  1  0
 14 15  1  0
 15 16  2  0
 15 17  1  0
 17 18  1  0
 17 19  1  0
 19 20  1  0
 20 21  1  0
 21 22  1  0
 22 23  1  0
 23 24  1  0
  6  2  2  0
 24 20  1  0
  1 25  1  0
  1 26  1  0
  1 27  1  0
  4 28  1  0
  5 29  1  0
  7 30  1  0
  7 31  1  0
 10 32  1  0
 11 33  1  0
 12 34  1  0
 12 35  1  0
 12 36  1  0
 13 37  1  0
 13 38  1  0
 14 39  1  0
 17 40  1  0
 18 41  1  0
 18 42  1  0
 18 43  1  0
 19 44  1  0
 19 45  1  0
 20 46  1  0
 21 47  1  0
 21 48  1  0
 22 49  1  0
 22 50  1  0
 23 51  1  0
 23 52  1  0
 24 53  1  0
 24 54  1  0
M  END
>  <Energy>  (899) 
485.70447059287665

>  <compound_id>  (899) 
63573

>  <target_id>  (899) 
1

>  <reference_id>  (899) 
66

>  <inspiration_ids>  (899) 
[66, 44]

>  <energy_score>  (899) 
398.27420573260065

>  <distance_score>  (899) 
4.594200564291375

>  <path>  (899) 
/opt/xchem-fragalysis-2/maxwin/BulkDock/SCRATCH/511025/C63573-P66/C63573-P66.minimised.mol

>  <scratch_subdir>  (899) 
/opt/xchem-fragalysis-2/maxwin/BulkDock/SCRATCH/511025/C63573-P66

>  <fragmenstein_runtime>  (899) 
15.724986553192139

>  <fragmenstein_outcome>  (899) 
too moved

>  <fragmenstein_mode>  (899) 
expansion

>  <fragmenstein_error>  (899) 


$$$$
C63573-P44
     RDKit          3D

 54 55  0  0  0  0  0  0  0  0999 V2000
   10.2698    2.9838   15.8258 C   0  0  0  0  0  0  0  0  0  0  0  0
   10.1631    1.5009   15.7261 C   0  0  0  0  0  0  0  0  0  0  0  0
   11.2067    0.6948   14.6267 S   0  0  0  0  0  0  0  0  0  0  0  0
   10.4183   -0.7822   14.8943 C   0  0  0  0  0  0  0  0  0  0  0  0
    9.3385   -0.6291   15.7309 C   0  0  0  0  0  0  0  0  0  0  0  0
    9.3189    0.6292   16.4134 C   0  0  0  0  0  0  0  0  0  0  0  0
    8.4795    1.0219   17.6327 C   0  0  0  0  0  0  0  0  0  0  0  0
    7.4208   -0.0093   18.1646 C   0  0  0  0  0  0  0  0  0  0  0  0
    6.6358   -0.4204   17.3434 O   0  0  0  0  0  0  0  0  0  0  0  0
    7.4951   -0.2357   19.6025 N   0  0  0  0  0  0  0  0  0  0  0  0
    6.3766   -1.1089   20.7294 C   0  0  0  0  0  0  0  0  0  0  0  0
    5.8601   -2.6124   20.7333 C   0  0  0  0  0  0  0  0  0  0  0  0
    4.9927   -0.7492   22.2444 C   0  0  0  0  0  0  0  0  0  0  0  0
    4.9861   -0.2089   23.8792 N   0  0  0  0  0  0  0  0  0  0  0  0
    4.4620    1.0407   24.4904 C   0  0  0  0  0  0  0  0  0  0  0  0
    3.9845    2.0229   23.9810 O   0  0  0  0  0  0  0  0  0  0  0  0
    4.4749    0.9483   26.0533 C   0  0  0  0  0  0  0  0  0  0  0  0
    3.7417   -0.2591   26.6305 C   0  0  0  0  0  0  0  0  0  0  0  0
    4.0451    2.2666   26.7754 C   0  0  0  0  0  0  0  0  0  0  0  0
    2.5947    2.7521   27.0116 C   0  0  0  0  0  0  0  0  0  0  0  0
    1.8035    3.2643   25.8090 C   0  0  0  0  0  0  0  0  0  0  0  0
    0.3469    3.3421   26.2827 C   0  0  0  0  0  0  0  0  0  0  0  0
    0.3011    2.6591   27.6483 C   0  0  0  0  0  0  0  0  0  0  0  0
    1.5930    1.8503   27.7257 C   0  0  0  0  0  0  0  0  0  0  0  0
    9.6941    3.4454   15.0153 H   0  0  0  0  0  0  0  0  0  0  0  0
   11.3028    3.3343   15.7376 H   0  0  0  0  0  0  0  0  0  0  0  0
    9.8561    3.3588   16.7662 H   0  0  0  0  0  0  0  0  0  0  0  0
   10.7081   -1.6665   14.3446 H   0  0  0  0  0  0  0  0  0  0  0  0
    8.6247   -1.4247   15.8593 H   0  0  0  0  0  0  0  0  0  0  0  0
    7.9616    1.9553   17.3871 H   0  0  0  0  0  0  0  0  0  0  0  0
    9.1371    1.3191   18.4389 H   0  0  0  0  0  0  0  0  0  0  0  0
    8.3321    0.1983   19.9586 H   0  0  0  0  0  0  0  0  0  0  0  0
    6.0769   -0.0846   20.3638 H   0  0  0  0  0  0  0  0  0  0  0  0
    5.3824   -3.0791   19.8763 H   0  0  0  0  0  0  0  0  0  0  0  0
    5.3038   -2.8769   21.5926 H   0  0  0  0  0  0  0  0  0  0  0  0
    6.7670   -3.1361   21.1109 H   0  0  0  0  0  0  0  0  0  0  0  0
    4.6118   -1.6721   22.6871 H   0  0  0  0  0  0  0  0  0  0  0  0
    4.4674    0.0205   21.6816 H   0  0  0  0  0  0  0  0  0  0  0  0
    5.2345   -0.8584   24.6131 H   0  0  0  0  0  0  0  0  0  0  0  0
    5.5407    0.8226   26.2981 H   0  0  0  0  0  0  0  0  0  0  0  0
    2.7363   -0.3292   26.2274 H   0  0  0  0  0  0  0  0  0  0  0  0
    3.6882   -0.2089   27.7228 H   0  0  0  0  0  0  0  0  0  0  0  0
    4.2534   -1.1945   26.3838 H   0  0  0  0  0  0  0  0  0  0  0  0
    4.4925    2.2019   27.7790 H   0  0  0  0  0  0  0  0  0  0  0  0
    4.5797    3.0931   26.2860 H   0  0  0  0  0  0  0  0  0  0  0  0
    2.7202    3.6300   27.6676 H   0  0  0  0  0  0  0  0  0  0  0  0
    2.1662    4.2424   25.4758 H   0  0  0  0  0  0  0  0  0  0  0  0
    1.8692    2.5895   24.9574 H   0  0  0  0  0  0  0  0  0  0  0  0
    0.0064    4.3802   26.3580 H   0  0  0  0  0  0  0  0  0  0  0  0
   -0.3106    2.8343   25.5689 H   0  0  0  0  0  0  0  0  0  0  0  0
    0.2849    3.4162   28.4415 H   0  0  0  0  0  0  0  0  0  0  0  0
   -0.5879    2.0325   27.7681 H   0  0  0  0  0  0  0  0  0  0  0  0
    1.8809    1.6385   28.7594 H   0  0  0  0  0  0  0  0  0  0  0  0
    1.4328    0.9054   27.2063 H   0  0  0  0  0  0  0  0  0  0  0  0
  1  2  1  0
  2  3  1  0
  3  4  1  0
  4  5  2  0
  5  6  1  0
  6  7  1  0
  7  8  1  0
  8  9  2  0
  8 10  1  0
 10 11  1  0
 11 12  1  0
 11 13  1  0
 13 14  1  0
 14 15  1  0
 15 16  2  0
 15 17  1  0
 17 18  1  0
 17 19  1  0
 19 20  1  0
 20 21  1  0
 21 22  1  0
 22 23  1  0
 23 24  1  0
  6  2  2  0
 24 20  1  0
  1 25  1  0
  1 26  1  0
  1 27  1  0
  4 28  1  0
  5 29  1  0
  7 30  1  0
  7 31  1  0
 10 32  1  0
 11 33  1  0
 12 34  1  0
 12 35  1  0
 12 36  1  0
 13 37  1  0
 13 38  1  0
 14 39  1  0
 17 40  1  0
 18 41  1  0
 18 42  1  0
 18 43  1  0
 19 44  1  0
 19 45  1  0
 20 46  1  0
 21 47  1  0
 21 48  1  0
 22 49  1  0
 22 50  1  0
 23 51  1  0
 23 52  1  0
 24 53  1  0
 24 54  1  0
M  END
>  <Energy>  (900) 
323.14496109511327

>  <compound_id>  (900) 
63573

>  <target_id>  (900) 
1

>  <reference_id>  (900) 
44

>  <inspiration_ids>  (900) 
[66, 44]

>  <energy_score>  (900) 
235.71469623483603

>  <distance_score>  (900) 
5.023798677569982

>  <path>  (900) 
/opt/xchem-fragalysis-2/maxwin/BulkDock/SCRATCH/511025/C63573-P44/C63573-P44.minimised.mol

>  <scratch_subdir>  (900) 
/opt/xchem-fragalysis-2/maxwin/BulkDock/SCRATCH/511025/C63573-P44

>  <fragmenstein_runtime>  (900) 
18.644065141677856

>  <fragmenstein_outcome>  (900) 
too moved

>  <fragmenstein_mode>  (900) 
expansion

>  <fragmenstein_error>  (900) 


$$$$
C63574-P66
     RDKit          3D

 51 52  0  0  0  0  0  0  0  0999 V2000
   11.8591   -2.4042   16.3660 C   0  0  0  0  0  0  0  0  0  0  0  0
   10.3822   -2.0739   16.0823 C   0  0  0  0  0  0  0  0  0  0  0  0
   10.1294   -2.8386   14.6500 S   0  0  0  0  0  0  0  0  0  0  0  0
    8.4538   -2.4301   14.5622 C   0  0  0  0  0  0  0  0  0  0  0  0
    8.0618   -1.5211   15.4496 C   0  0  0  0  0  0  0  0  0  0  0  0
    9.0108   -1.5520   16.5741 C   0  0  0  0  0  0  0  0  0  0  0  0
    8.3091   -0.4683   18.2075 C   0  0  0  0  0  0  0  0  0  0  0  0
    6.8095   -0.4776   18.6840 C   0  0  0  0  0  0  0  0  0  0  0  0
    5.9883   -1.0113   17.9545 O   0  0  0  0  0  0  0  0  0  0  0  0
    6.6555    0.1269   20.0961 N   0  0  0  0  0  0  0  0  0  0  0  0
    5.0801    0.2396   21.3052 C   0  0  0  0  0  0  0  0  0  0  0  0
    5.3528   -1.5313   22.1168 C   0  0  0  0  0  0  0  0  0  0  0  0
    3.2908    1.2571   21.5879 C   0  0  0  0  0  0  0  0  0  0  0  0
    2.7966    2.3065   22.6454 N   0  0  0  0  0  0  0  0  0  0  0  0
    1.8243    3.3796   22.5388 C   0  0  0  0  0  0  0  0  0  0  0  0
    1.0923    3.6854   21.6357 O   0  0  0  0  0  0  0  0  0  0  0  0
    1.7984    4.3762   23.7767 C   0  0  0  0  0  0  0  0  0  0  0  0
    0.7925    5.5220   23.4097 C   0  0  0  0  0  0  0  0  0  0  0  0
    3.1565    5.0835   23.9565 C   0  0  0  0  0  0  0  0  0  0  0  0
    1.3285    3.8746   25.1540 C   0  0  0  0  0  0  0  0  0  0  0  0
   -0.0509    3.1804   25.2922 C   0  0  0  0  0  0  0  0  0  0  0  0
    0.5219    2.4670   26.5365 C   0  0  0  0  0  0  0  0  0  0  0  0
    1.9235    2.6608   25.9152 C   0  0  0  0  0  0  0  0  0  0  0  0
   12.5054   -1.8313   15.6840 H   0  0  0  0  0  0  0  0  0  0  0  0
   12.0648   -3.4696   16.1712 H   0  0  0  0  0  0  0  0  0  0  0  0
   12.2671   -2.2890   17.3519 H   0  0  0  0  0  0  0  0  0  0  0  0
    7.8167   -2.6914   13.7436 H   0  0  0  0  0  0  0  0  0  0  0  0
    7.0931   -1.0410   15.4432 H   0  0  0  0  0  0  0  0  0  0  0  0
    8.9568   -0.0749   19.0107 H   0  0  0  0  0  0  0  0  0  0  0  0
    8.4396   -1.2445   18.9712 H   0  0  0  0  0  0  0  0  0  0  0  0
    7.5172    0.5602   20.3627 H   0  0  0  0  0  0  0  0  0  0  0  0
    4.2923   -0.3921   21.6164 H   0  0  0  0  0  0  0  0  0  0  0  0
    4.5049   -1.6786   22.8418 H   0  0  0  0  0  0  0  0  0  0  0  0
    5.5883   -2.3165   21.3908 H   0  0  0  0  0  0  0  0  0  0  0  0
    5.8538   -1.7105   23.0576 H   0  0  0  0  0  0  0  0  0  0  0  0
    2.3583    0.8512   21.3128 H   0  0  0  0  0  0  0  0  0  0  0  0
    2.8502    1.8551   20.7302 H   0  0  0  0  0  0  0  0  0  0  0  0
    3.1734    2.2948   23.5794 H   0  0  0  0  0  0  0  0  0  0  0  0
   -0.2170    5.1282   23.2419 H   0  0  0  0  0  0  0  0  0  0  0  0
    0.7152    6.2671   24.2107 H   0  0  0  0  0  0  0  0  0  0  0  0
    1.1022    6.0493   22.4992 H   0  0  0  0  0  0  0  0  0  0  0  0
    3.6840    5.1968   23.0034 H   0  0  0  0  0  0  0  0  0  0  0  0
    3.0353    6.0872   24.3828 H   0  0  0  0  0  0  0  0  0  0  0  0
    3.8003    4.5553   24.6638 H   0  0  0  0  0  0  0  0  0  0  0  0
    1.3601    4.7461   25.8356 H   0  0  0  0  0  0  0  0  0  0  0  0
   -0.8984    3.8439   25.4861 H   0  0  0  0  0  0  0  0  0  0  0  0
   -0.3082    2.5246   24.4579 H   0  0  0  0  0  0  0  0  0  0  0  0
    0.1992    1.4359   26.6938 H   0  0  0  0  0  0  0  0  0  0  0  0
    0.3743    3.0255   27.4686 H   0  0  0  0  0  0  0  0  0  0  0  0
    2.7213    2.8955   26.6252 H   0  0  0  0  0  0  0  0  0  0  0  0
    2.2444    1.8218   25.2998 H   0  0  0  0  0  0  0  0  0  0  0  0
  1  2  1  0
  2  3  1  0
  3  4  1  0
  4  5  2  0
  5  6  1  0
  6  7  1  0
  7  8  1  0
  8  9  2  0
  8 10  1  0
 10 11  1  0
 11 12  1  0
 11 13  1  0
 13 14  1  0
 14 15  1  0
 15 16  2  0
 15 17  1  0
 17 18  1  0
 17 19  1  0
 17 20  1  0
 20 21  1  0
 21 22  1  0
 22 23  1  0
  6  2  2  0
 23 20  1  0
  1 24  1  0
  1 25  1  0
  1 26  1  0
  4 27  1  0
  5 28  1  0
  7 29  1  0
  7 30  1  0
 10 31  1  0
 11 32  1  0
 12 33  1  0
 12 34  1  0
 12 35  1  0
 13 36  1  0
 13 37  1  0
 14 38  1  0
 18 39  1  0
 18 40  1  0
 18 41  1  0
 19 42  1  0
 19 43  1  0
 19 44  1  0
 20 45  1  0
 21 46  1  0
 21 47  1  0
 22 48  1  0
 22 49  1  0
 23 50  1  0
 23 51  1  0
M  END
>  <Energy>  (901) 
604.80273523611368

>  <compound_id>  (901) 
63574

>  <target_id>  (901) 
1

>  <reference_id>  (901) 
66

>  <inspiration_ids>  (901) 
[66, 44]

>  <energy_score>  (901) 
518.3013094615558

>  <distance_score>  (901) 
5.815470266804915

>  <path>  (901) 
/opt/xchem-fragalysis-2/maxwin/BulkDock/SCRATCH/511025/C63574-P66/C63574-P66.minimised.mol

>  <scratch_subdir>  (901) 
/opt/xchem-fragalysis-2/maxwin/BulkDock/SCRATCH/511025/C63574-P66

>  <fragmenstein_runtime>  (901) 
17.52340006828308

>  <fragmenstein_outcome>  (901) 
too moved

>  <fragmenstein_mode>  (901) 
expansion

>  <fragmenstein_error>  (901) 


$$$$
C63574-P44
     RDKit          3D

 51 52  0  0  0  0  0  0  0  0999 V2000
   14.9175   -1.0087   16.3127 C   0  0  0  0  0  0  0  0  0  0  0  0
   13.7023   -1.7791   15.9155 C   0  0  0  0  0  0  0  0  0  0  0  0
   13.5553   -3.3878   16.4877 S   0  0  0  0  0  0  0  0  0  0  0  0
   12.1196   -3.6356   15.6124 C   0  0  0  0  0  0  0  0  0  0  0  0
   11.7177   -2.5041   14.9461 C   0  0  0  0  0  0  0  0  0  0  0  0
   12.6333   -1.4107   15.1078 C   0  0  0  0  0  0  0  0  0  0  0  0
   12.4096   -0.0709   14.4659 C   0  0  0  0  0  0  0  0  0  0  0  0
   13.2393    0.1745   13.1994 C   0  0  0  0  0  0  0  0  0  0  0  0
   13.9512   -0.6088   12.7064 O   0  0  0  0  0  0  0  0  0  0  0  0
   12.8969    1.6336   12.7753 N   0  0  0  0  0  0  0  0  0  0  0  0
   13.4368    2.4547   11.7102 C   0  0  0  0  0  0  0  0  0  0  0  0
   14.3709    3.5083   12.2958 C   0  0  0  0  0  0  0  0  0  0  0  0
   12.3184    3.0556   10.8417 C   0  0  0  0  0  0  0  0  0  0  0  0
   11.3245    3.7878   11.5929 N   0  0  0  0  0  0  0  0  0  0  0  0
   11.3438    5.2386   12.1418 C   0  0  0  0  0  0  0  0  0  0  0  0
   12.1326    6.0882   12.0051 O   0  0  0  0  0  0  0  0  0  0  0  0
   10.0370    5.4563   12.9808 C   0  0  0  0  0  0  0  0  0  0  0  0
    8.7983    5.3100   12.0757 C   0  0  0  0  0  0  0  0  0  0  0  0
   10.0509    6.9122   13.4993 C   0  0  0  0  0  0  0  0  0  0  0  0
    9.9312    4.4483   14.1565 C   0  0  0  0  0  0  0  0  0  0  0  0
   11.0471    4.4501   15.2359 C   0  0  0  0  0  0  0  0  0  0  0  0
   10.0666    5.1274   16.2084 C   0  0  0  0  0  0  0  0  0  0  0  0
    8.9104    4.6620   15.3100 C   0  0  0  0  0  0  0  0  0  0  0  0
   14.8819    0.0171   15.9365 H   0  0  0  0  0  0  0  0  0  0  0  0
   15.8162   -1.4760   15.8952 H   0  0  0  0  0  0  0  0  0  0  0  0
   15.0271   -0.9685   17.4006 H   0  0  0  0  0  0  0  0  0  0  0  0
   11.6448   -4.6051   15.6351 H   0  0  0  0  0  0  0  0  0  0  0  0
   10.8178   -2.4648   14.3438 H   0  0  0  0  0  0  0  0  0  0  0  0
   12.6403    0.7177   15.1880 H   0  0  0  0  0  0  0  0  0  0  0  0
   11.3503    0.0316   14.1979 H   0  0  0  0  0  0  0  0  0  0  0  0
   12.1754    2.0033   13.3840 H   0  0  0  0  0  0  0  0  0  0  0  0
   14.0388    1.7933   11.0756 H   0  0  0  0  0  0  0  0  0  0  0  0
   15.2155    3.0300   12.8046 H   0  0  0  0  0  0  0  0  0  0  0  0
   14.7737    4.1574   11.5119 H   0  0  0  0  0  0  0  0  0  0  0  0
   13.8638    4.1322   13.0387 H   0  0  0  0  0  0  0  0  0  0  0  0
   11.7792    2.2591   10.3210 H   0  0  0  0  0  0  0  0  0  0  0  0
   12.7427    3.7351   10.0955 H   0  0  0  0  0  0  0  0  0  0  0  0
   10.4489    3.3462   11.8364 H   0  0  0  0  0  0  0  0  0  0  0  0
    8.8932    5.9294   11.1765 H   0  0  0  0  0  0  0  0  0  0  0  0
    8.6373    4.2792   11.7456 H   0  0  0  0  0  0  0  0  0  0  0  0
    7.8862    5.6152   12.6012 H   0  0  0  0  0  0  0  0  0  0  0  0
   10.1005    7.6255   12.6674 H   0  0  0  0  0  0  0  0  0  0  0  0
   10.9195    7.1064   14.1380 H   0  0  0  0  0  0  0  0  0  0  0  0
    9.1523    7.1536   14.0757 H   0  0  0  0  0  0  0  0  0  0  0  0
    9.8007    3.4346   13.7504 H   0  0  0  0  0  0  0  0  0  0  0  0
   11.3436    3.4406   15.5426 H   0  0  0  0  0  0  0  0  0  0  0  0
   11.9518    5.0214   15.0126 H   0  0  0  0  0  0  0  0  0  0  0  0
   10.1756    6.2152   16.2669 H   0  0  0  0  0  0  0  0  0  0  0  0
   10.0576    4.7269   17.2254 H   0  0  0  0  0  0  0  0  0  0  0  0
    8.1155    5.3927   15.1438 H   0  0  0  0  0  0  0  0  0  0  0  0
    8.4489    3.7286   15.6554 H   0  0  0  0  0  0  0  0  0  0  0  0
  1  2  1  0
  2  3  1  0
  3  4  1  0
  4  5  2  0
  5  6  1  0
  6  7  1  0
  7  8  1  0
  8  9  2  0
  8 10  1  0
 10 11  1  0
 11 12  1  0
 11 13  1  0
 13 14  1  0
 14 15  1  0
 15 16  2  0
 15 17  1  0
 17 18  1  0
 17 19  1  0
 17 20  1  0
 20 21  1  0
 21 22  1  0
 22 23  1  0
  6  2  2  0
 23 20  1  0
  1 24  1  0
  1 25  1  0
  1 26  1  0
  4 27  1  0
  5 28  1  0
  7 29  1  0
  7 30  1  0
 10 31  1  0
 11 32  1  0
 12 33  1  0
 12 34  1  0
 12 35  1  0
 13 36  1  0
 13 37  1  0
 14 38  1  0
 18 39  1  0
 18 40  1  0
 18 41  1  0
 19 42  1  0
 19 43  1  0
 19 44  1  0
 20 45  1  0
 21 46  1  0
 21 47  1  0
 22 48  1  0
 22 49  1  0
 23 50  1  0
 23 51  1  0
M  END
>  <Energy>  (902) 
65.209000467897809

>  <compound_id>  (902) 
63574

>  <target_id>  (902) 
1

>  <reference_id>  (902) 
44

>  <inspiration_ids>  (902) 
[66, 44]

>  <energy_score>  (902) 
-13.250892198868314

>  <distance_score>  (902) 
14.007747984895612

>  <path>  (902) 
/opt/xchem-fragalysis-2/maxwin/BulkDock/SCRATCH/511025/C63574-P44/C63574-P44.minimised.mol

>  <scratch_subdir>  (902) 
/opt/xchem-fragalysis-2/maxwin/BulkDock/SCRATCH/511025/C63574-P44

>  <fragmenstein_runtime>  (902) 
22.38326144218445

>  <fragmenstein_outcome>  (902) 
too moved

>  <fragmenstein_mode>  (902) 
expansion

>  <fragmenstein_error>  (902) 


$$$$
C63575-P66
     RDKit          3D

 51 52  0  0  0  0  0  0  0  0999 V2000
   15.4575   -1.5317   16.5035 C   0  0  0  0  0  0  0  0  0  0  0  0
   14.1572   -1.7729   15.8085 C   0  0  0  0  0  0  0  0  0  0  0  0
   13.1268   -3.0063   16.4091 S   0  0  0  0  0  0  0  0  0  0  0  0
   11.9362   -2.6739   15.2371 C   0  0  0  0  0  0  0  0  0  0  0  0
   12.3216   -1.6622   14.3907 C   0  0  0  0  0  0  0  0  0  0  0  0
   13.6252   -1.1417   14.6909 C   0  0  0  0  0  0  0  0  0  0  0  0
   14.3153   -0.1035   13.8484 C   0  0  0  0  0  0  0  0  0  0  0  0
   13.4866    1.1713   13.6398 C   0  0  0  0  0  0  0  0  0  0  0  0
   12.8512    1.2989   12.6305 O   0  0  0  0  0  0  0  0  0  0  0  0
   13.6754    2.0669   14.7510 N   0  0  0  0  0  0  0  0  0  0  0  0
   13.2335    3.4483   14.9583 C   0  0  0  0  0  0  0  0  0  0  0  0
   13.6989    4.3305   13.7934 C   0  0  0  0  0  0  0  0  0  0  0  0
   13.7993    4.0019   16.3027 C   0  0  0  0  0  0  0  0  0  0  0  0
   15.2461    4.0132   16.3866 N   0  0  0  0  0  0  0  0  0  0  0  0
   16.1941    2.9379   16.4356 C   0  0  0  0  0  0  0  0  0  0  0  0
   16.0386    1.7552   16.3404 O   0  0  0  0  0  0  0  0  0  0  0  0
   17.6100    3.5157   16.6416 C   0  0  0  0  0  0  0  0  0  0  0  0
   17.7814    4.0069   18.0788 C   0  0  0  0  0  0  0  0  0  0  0  0
   18.6823    2.4764   16.3123 C   0  0  0  0  0  0  0  0  0  0  0  0
   11.7001    3.3997   15.0910 C   0  0  0  0  0  0  0  0  0  0  0  0
   10.7504    3.1507   13.8797 C   0  0  0  0  0  0  0  0  0  0  0  0
    9.7224    4.0495   14.5984 C   0  0  0  0  0  0  0  0  0  0  0  0
   10.9150    4.7337   15.2922 C   0  0  0  0  0  0  0  0  0  0  0  0
   15.8205   -2.4297   17.0148 H   0  0  0  0  0  0  0  0  0  0  0  0
   16.2353   -1.2303   15.7956 H   0  0  0  0  0  0  0  0  0  0  0  0
   15.3400   -0.7397   17.2498 H   0  0  0  0  0  0  0  0  0  0  0  0
   11.0199   -3.2456   15.2033 H   0  0  0  0  0  0  0  0  0  0  0  0
   11.7021   -1.3202   13.5705 H   0  0  0  0  0  0  0  0  0  0  0  0
   14.5138   -0.5335   12.8575 H   0  0  0  0  0  0  0  0  0  0  0  0
   15.2973    0.1656   14.2500 H   0  0  0  0  0  0  0  0  0  0  0  0
   14.3518    1.6563   15.3988 H   0  0  0  0  0  0  0  0  0  0  0  0
   14.7883    4.2902   13.6788 H   0  0  0  0  0  0  0  0  0  0  0  0
   13.2738    4.0106   12.8372 H   0  0  0  0  0  0  0  0  0  0  0  0
   13.4211    5.3787   13.9420 H   0  0  0  0  0  0  0  0  0  0  0  0
   13.4594    5.0284   16.4781 H   0  0  0  0  0  0  0  0  0  0  0  0
   13.4472    3.3853   17.1382 H   0  0  0  0  0  0  0  0  0  0  0  0
   15.7241    4.8840   16.5870 H   0  0  0  0  0  0  0  0  0  0  0  0
   17.7405    4.3579   15.9501 H   0  0  0  0  0  0  0  0  0  0  0  0
   18.7911    4.3995   18.2388 H   0  0  0  0  0  0  0  0  0  0  0  0
   17.0732    4.8057   18.3208 H   0  0  0  0  0  0  0  0  0  0  0  0
   17.6132    3.1944   18.7945 H   0  0  0  0  0  0  0  0  0  0  0  0
   19.6840    2.9104   16.3981 H   0  0  0  0  0  0  0  0  0  0  0  0
   18.5621    2.1055   15.2885 H   0  0  0  0  0  0  0  0  0  0  0  0
   18.6272    1.6144   16.9865 H   0  0  0  0  0  0  0  0  0  0  0  0
   11.4470    2.7019   15.9049 H   0  0  0  0  0  0  0  0  0  0  0  0
   10.4386    2.1136   13.7300 H   0  0  0  0  0  0  0  0  0  0  0  0
   11.0828    3.5632   12.9220 H   0  0  0  0  0  0  0  0  0  0  0  0
    9.1139    4.6875   13.9530 H   0  0  0  0  0  0  0  0  0  0  0  0
    9.0658    3.5082   15.2894 H   0  0  0  0  0  0  0  0  0  0  0  0
   10.7461    5.0311   16.3307 H   0  0  0  0  0  0  0  0  0  0  0  0
   11.3002    5.5954   14.7372 H   0  0  0  0  0  0  0  0  0  0  0  0
  1  2  1  0
  2  3  1  0
  3  4  1  0
  4  5  2  0
  5  6  1  0
  6  7  1  0
  7  8  1  0
  8  9  2  0
  8 10  1  0
 10 11  1  0
 11 12  1  0
 11 13  1  0
 13 14  1  0
 14 15  1  0
 15 16  2  0
 15 17  1  0
 17 18  1  0
 17 19  1  0
 11 20  1  0
 20 21  1  0
 21 22  1  0
 22 23  1  0
  6  2  2  0
 23 20  1  0
  1 24  1  0
  1 25  1  0
  1 26  1  0
  4 27  1  0
  5 28  1  0
  7 29  1  0
  7 30  1  0
 10 31  1  0
 12 32  1  0
 12 33  1  0
 12 34  1  0
 13 35  1  0
 13 36  1  0
 14 37  1  0
 17 38  1  0
 18 39  1  0
 18 40  1  0
 18 41  1  0
 19 42  1  0
 19 43  1  0
 19 44  1  0
 20 45  1  0
 21 46  1  0
 21 47  1  0
 22 48  1  0
 22 49  1  0
 23 50  1  0
 23 51  1  0
M  END
>  <Energy>  (903) 
35.636662696829987

>  <compound_id>  (903) 
63575

>  <target_id>  (903) 
1

>  <reference_id>  (903) 
66

>  <inspiration_ids>  (903) 
[66, 44]

>  <energy_score>  (903) 
-45.363740575459246

>  <distance_score>  (903) 
13.524947744554625

>  <path>  (903) 
/opt/xchem-fragalysis-2/maxwin/BulkDock/SCRATCH/511025/C63575-P66/C63575-P66.minimised.mol

>  <scratch_subdir>  (903) 
/opt/xchem-fragalysis-2/maxwin/BulkDock/SCRATCH/511025/C63575-P66

>  <fragmenstein_runtime>  (903) 
20.10598850250244

>  <fragmenstein_outcome>  (903) 
too moved

>  <fragmenstein_mode>  (903) 
expansion

>  <fragmenstein_error>  (903) 


$$$$
C63575-P44
     RDKit          3D

 51 52  0  0  0  0  0  0  0  0999 V2000
   10.0600   -0.4877   15.1511 C   0  0  0  0  0  0  0  0  0  0  0  0
   11.5249   -0.6746   14.9670 C   0  0  0  0  0  0  0  0  0  0  0  0
   12.2467   -2.1117   15.5669 S   0  0  0  0  0  0  0  0  0  0  0  0
   13.7974   -1.6050   15.0853 C   0  0  0  0  0  0  0  0  0  0  0  0
   13.7653   -0.3835   14.4526 C   0  0  0  0  0  0  0  0  0  0  0  0
   12.4425    0.1678   14.3550 C   0  0  0  0  0  0  0  0  0  0  0  0
   12.1304    1.4473   13.6223 C   0  0  0  0  0  0  0  0  0  0  0  0
   12.1302    2.7114   14.5036 C   0  0  0  0  0  0  0  0  0  0  0  0
   13.1769    3.2028   14.8259 O   0  0  0  0  0  0  0  0  0  0  0  0
   10.7713    3.1504   14.7326 N   0  0  0  0  0  0  0  0  0  0  0  0
   10.2419    4.3852   15.3469 C   0  0  0  0  0  0  0  0  0  0  0  0
   11.3343    5.2593   15.9751 C   0  0  0  0  0  0  0  0  0  0  0  0
    9.1641    4.0023   16.4067 C   0  0  0  0  0  0  0  0  0  0  0  0
    8.4656    5.1155   17.0118 N   0  0  0  0  0  0  0  0  0  0  0  0
    8.2874    5.4785   18.3890 C   0  0  0  0  0  0  0  0  0  0  0  0
    8.7376    4.9972   19.3897 O   0  0  0  0  0  0  0  0  0  0  0  0
    7.3851    6.7211   18.5231 C   0  0  0  0  0  0  0  0  0  0  0  0
    8.0170    7.9513   17.8777 C   0  0  0  0  0  0  0  0  0  0  0  0
    5.9693    6.4743   18.0096 C   0  0  0  0  0  0  0  0  0  0  0  0
    9.5687    5.0989   14.1505 C   0  0  0  0  0  0  0  0  0  0  0  0
   10.4262    5.4843   12.9023 C   0  0  0  0  0  0  0  0  0  0  0  0
    9.4552    6.6611   12.6875 C   0  0  0  0  0  0  0  0  0  0  0  0
    9.1617    6.6048   14.2003 C   0  0  0  0  0  0  0  0  0  0  0  0
    9.6376    0.1563   14.3749 H   0  0  0  0  0  0  0  0  0  0  0  0
    9.5180   -1.4383   15.1133 H   0  0  0  0  0  0  0  0  0  0  0  0
    9.8495   -0.0143   16.1146 H   0  0  0  0  0  0  0  0  0  0  0  0
   14.6600   -2.2275   15.2803 H   0  0  0  0  0  0  0  0  0  0  0  0
   14.6555    0.0968   14.0626 H   0  0  0  0  0  0  0  0  0  0  0  0
   11.1862    1.3480   13.0742 H   0  0  0  0  0  0  0  0  0  0  0  0
   12.8851    1.6122   12.8410 H   0  0  0  0  0  0  0  0  0  0  0  0
   10.1332    2.4432   14.3892 H   0  0  0  0  0  0  0  0  0  0  0  0
   11.8785    4.7241   16.7553 H   0  0  0  0  0  0  0  0  0  0  0  0
   12.0748    5.5881   15.2396 H   0  0  0  0  0  0  0  0  0  0  0  0
   10.9199    6.1620   16.4355 H   0  0  0  0  0  0  0  0  0  0  0  0
    9.6102    3.4085   17.2097 H   0  0  0  0  0  0  0  0  0  0  0  0
    8.3907    3.3747   15.9469 H   0  0  0  0  0  0  0  0  0  0  0  0
    7.8661    5.6927   16.4391 H   0  0  0  0  0  0  0  0  0  0  0  0
    7.3076    6.9218   19.6008 H   0  0  0  0  0  0  0  0  0  0  0  0
    7.4627    8.8555   18.1507 H   0  0  0  0  0  0  0  0  0  0  0  0
    9.0536    8.0757   18.2087 H   0  0  0  0  0  0  0  0  0  0  0  0
    8.0238    7.8846   16.7857 H   0  0  0  0  0  0  0  0  0  0  0  0
    5.9329    6.3748   16.9201 H   0  0  0  0  0  0  0  0  0  0  0  0
    5.3116    7.3052   18.2866 H   0  0  0  0  0  0  0  0  0  0  0  0
    5.5547    5.5580   18.4404 H   0  0  0  0  0  0  0  0  0  0  0  0
    8.7055    4.4955   13.8268 H   0  0  0  0  0  0  0  0  0  0  0  0
   10.4495    4.7429   12.0986 H   0  0  0  0  0  0  0  0  0  0  0  0
   11.4519    5.8038   13.1133 H   0  0  0  0  0  0  0  0  0  0  0  0
    9.9038    7.5886   12.3237 H   0  0  0  0  0  0  0  0  0  0  0  0
    8.5913    6.4115   12.0607 H   0  0  0  0  0  0  0  0  0  0  0  0
    8.1233    6.8092   14.4734 H   0  0  0  0  0  0  0  0  0  0  0  0
    9.8175    7.2551   14.7876 H   0  0  0  0  0  0  0  0  0  0  0  0
  1  2  1  0
  2  3  1  0
  3  4  1  0
  4  5  2  0
  5  6  1  0
  6  7  1  0
  7  8  1  0
  8  9  2  0
  8 10  1  0
 10 11  1  0
 11 12  1  0
 11 13  1  0
 13 14  1  0
 14 15  1  0
 15 16  2  0
 15 17  1  0
 17 18  1  0
 17 19  1  0
 11 20  1  0
 20 21  1  0
 21 22  1  0
 22 23  1  0
  6  2  2  0
 23 20  1  0
  1 24  1  0
  1 25  1  0
  1 26  1  0
  4 27  1  0
  5 28  1  0
  7 29  1  0
  7 30  1  0
 10 31  1  0
 12 32  1  0
 12 33  1  0
 12 34  1  0
 13 35  1  0
 13 36  1  0
 14 37  1  0
 17 38  1  0
 18 39  1  0
 18 40  1  0
 18 41  1  0
 19 42  1  0
 19 43  1  0
 19 44  1  0
 20 45  1  0
 21 46  1  0
 21 47  1  0
 22 48  1  0
 22 49  1  0
 23 50  1  0
 23 51  1  0
M  END
>  <Energy>  (904) 
50.559338274693651

>  <compound_id>  (904) 
63575

>  <target_id>  (904) 
1

>  <reference_id>  (904) 
44

>  <inspiration_ids>  (904) 
[66, 44]

>  <energy_score>  (904) 
-30.44106499759232

>  <distance_score>  (904) 
10.31659720567949

>  <path>  (904) 
/opt/xchem-fragalysis-2/maxwin/BulkDock/SCRATCH/511025/C63575-P44/C63575-P44.minimised.mol

>  <scratch_subdir>  (904) 
/opt/xchem-fragalysis-2/maxwin/BulkDock/SCRATCH/511025/C63575-P44

>  <fragmenstein_runtime>  (904) 
22.464690685272217

>  <fragmenstein_outcome>  (904) 
too moved

>  <fragmenstein_mode>  (904) 
expansion

>  <fragmenstein_error>  (904) 


$$$$
C26117-P66
     RDKit          3D

 40 41  0  0  0  0  0  0  0  0999 V2000
    5.2675   -2.1740   24.5135 C   0  0  0  0  0  0  0  0  0  0  0  0
    4.5014   -1.4542   23.4835 C   0  0  0  0  0  0  0  0  0  0  0  0
    4.1423   -0.4125   24.5634 O   0  0  0  0  0  0  0  0  0  0  0  0
    3.1794   -0.8421   25.6196 N   0  0  0  0  0  0  0  0  0  0  0  0
    5.5201   -1.4956   21.8169 C   0  0  0  0  0  0  0  0  0  0  0  0
    5.7787   -2.6323   21.4709 O   0  0  0  0  0  0  0  0  0  0  0  0
    6.0316   -0.0516   21.1340 N   0  0  0  0  0  0  0  0  0  0  0  0
    7.1751    0.2702   19.8294 C   0  0  0  0  0  0  0  0  0  0  0  0
    8.0135    1.9496   20.1487 C   0  0  0  0  0  0  0  0  0  0  0  0
    9.5480    2.0941   20.5951 C   0  0  0  0  0  0  0  0  0  0  0  0
   10.5125    2.9330   20.0024 C   0  0  0  0  0  0  0  0  0  0  0  0
   11.7706    2.9801   20.6667 C   0  0  0  0  0  0  0  0  0  0  0  0
   11.7539    2.2151   21.8024 C   0  0  0  0  0  0  0  0  0  0  0  0
   10.2299    1.5091   22.0583 S   0  0  0  0  0  0  0  0  0  0  0  0
    7.3825    3.3162   20.4639 N   0  0  0  0  0  0  0  0  0  0  0  0
    7.5380    4.3230   19.3647 C   0  0  0  0  0  0  0  0  0  0  0  0
    7.5985    5.6872   20.0263 C   0  0  0  0  0  0  0  0  0  0  0  0
    8.3298    5.3853   21.3091 C   0  0  0  0  0  0  0  0  0  0  0  0
    7.7357    4.0434   21.7010 C   0  0  0  0  0  0  0  0  0  0  0  0
    4.4646   -2.7991   24.9312 H   0  0  0  0  0  0  0  0  0  0  0  0
    5.7004   -1.5946   25.3449 H   0  0  0  0  0  0  0  0  0  0  0  0
    6.0846   -2.7730   24.1458 H   0  0  0  0  0  0  0  0  0  0  0  0
    3.6169   -2.0891   23.3399 H   0  0  0  0  0  0  0  0  0  0  0  0
    3.7936   -1.3054   26.2872 H   0  0  0  0  0  0  0  0  0  0  0  0
    2.6370   -1.5751   25.1480 H   0  0  0  0  0  0  0  0  0  0  0  0
    5.5770    0.7181   21.5927 H   0  0  0  0  0  0  0  0  0  0  0  0
    7.9362   -0.4943   19.8154 H   0  0  0  0  0  0  0  0  0  0  0  0
    6.6635    0.3317   18.8624 H   0  0  0  0  0  0  0  0  0  0  0  0
    7.9640    2.1386   19.0848 H   0  0  0  0  0  0  0  0  0  0  0  0
   10.3317    3.4852   19.0912 H   0  0  0  0  0  0  0  0  0  0  0  0
   12.6292    3.5487   20.3332 H   0  0  0  0  0  0  0  0  0  0  0  0
   12.5548    2.0577   22.5120 H   0  0  0  0  0  0  0  0  0  0  0  0
    6.7197    4.2921   18.6401 H   0  0  0  0  0  0  0  0  0  0  0  0
    8.4534    4.1867   18.7869 H   0  0  0  0  0  0  0  0  0  0  0  0
    8.1185    6.4295   19.4141 H   0  0  0  0  0  0  0  0  0  0  0  0
    6.5878    6.0564   20.2382 H   0  0  0  0  0  0  0  0  0  0  0  0
    9.4068    5.3054   21.1306 H   0  0  0  0  0  0  0  0  0  0  0  0
    8.1636    6.1542   22.0694 H   0  0  0  0  0  0  0  0  0  0  0  0
    6.7962    4.2804   22.2170 H   0  0  0  0  0  0  0  0  0  0  0  0
    8.3569    3.5167   22.4241 H   0  0  0  0  0  0  0  0  0  0  0  0
  1  2  1  0
  2  3  1  0
  3  4  1  0
  2  5  1  0
  5  6  2  0
  5  7  1  0
  7  8  1  0
  8  9  1  0
  9 10  1  0
 10 11  2  0
 11 12  1  0
 12 13  2  0
 13 14  1  0
  9 15  1  0
 15 16  1  0
 16 17  1  0
 17 18  1  0
 18 19  1  0
 14 10  1  0
 19 15  1  0
  1 20  1  0
  1 21  1  0
  1 22  1  0
  2 23  1  0
  4 24  1  0
  4 25  1  0
  7 26  1  0
  8 27  1  0
  8 28  1  0
  9 29  1  0
 11 30  1  0
 12 31  1  0
 13 32  1  0
 16 33  1  0
 16 34  1  0
 17 35  1  0
 17 36  1  0
 18 37  1  0
 18 38  1  0
 19 39  1  0
 19 40  1  0
M  END
>  <Energy>  (905) 
280.99237639575119

>  <compound_id>  (905) 
26117

>  <target_id>  (905) 
1

>  <reference_id>  (905) 
66

>  <inspiration_ids>  (905) 
[66, 44]

>  <energy_score>  (905) 
129.16468933090562

>  <distance_score>  (905) 
7.65916246106971

>  <path>  (905) 
/opt/xchem-fragalysis-2/maxwin/BulkDock/SCRATCH/511025/C26117-P66/C26117-P66.minimised.mol

>  <scratch_subdir>  (905) 
/opt/xchem-fragalysis-2/maxwin/BulkDock/SCRATCH/511025/C26117-P66

>  <fragmenstein_runtime>  (905) 
9.66255235671997

>  <fragmenstein_outcome>  (905) 
too moved

>  <fragmenstein_mode>  (905) 
expansion

>  <fragmenstein_error>  (905) 


$$$$
C26117-P44
     RDKit          3D

 40 41  0  0  0  0  0  0  0  0999 V2000
    8.0895   -1.5529   28.1645 C   0  0  0  0  0  0  0  0  0  0  0  0
    8.0482   -1.2169   26.6770 C   0  0  0  0  0  0  0  0  0  0  0  0
    7.2459   -0.0258   26.4998 O   0  0  0  0  0  0  0  0  0  0  0  0
    5.8091   -0.3423   26.6035 N   0  0  0  0  0  0  0  0  0  0  0  0
    9.5342   -1.1027   26.0419 C   0  0  0  0  0  0  0  0  0  0  0  0
   10.0026   -0.0188   25.8270 O   0  0  0  0  0  0  0  0  0  0  0  0
   10.0435   -2.4350   25.7378 N   0  0  0  0  0  0  0  0  0  0  0  0
   11.2474   -2.8711   24.9814 C   0  0  0  0  0  0  0  0  0  0  0  0
   12.5617   -2.0312   24.7013 C   0  0  0  0  0  0  0  0  0  0  0  0
   13.2755   -2.5224   23.3848 C   0  0  0  0  0  0  0  0  0  0  0  0
   13.9808   -1.7472   22.4670 C   0  0  0  0  0  0  0  0  0  0  0  0
   14.3980   -2.4707   21.3102 C   0  0  0  0  0  0  0  0  0  0  0  0
   14.0206   -3.7911   21.3729 C   0  0  0  0  0  0  0  0  0  0  0  0
   13.2294   -4.1601   22.8438 S   0  0  0  0  0  0  0  0  0  0  0  0
   13.5173   -2.1224   25.8370 N   0  0  0  0  0  0  0  0  0  0  0  0
   14.6998   -1.2685   25.6721 C   0  0  0  0  0  0  0  0  0  0  0  0
   15.2874   -1.1777   27.0741 C   0  0  0  0  0  0  0  0  0  0  0  0
   14.1375   -1.5160   28.0104 C   0  0  0  0  0  0  0  0  0  0  0  0
   12.9285   -1.6682   27.1022 C   0  0  0  0  0  0  0  0  0  0  0  0
    8.7024   -2.4395   28.3536 H   0  0  0  0  0  0  0  0  0  0  0  0
    8.5184   -0.7188   28.7308 H   0  0  0  0  0  0  0  0  0  0  0  0
    7.0873   -1.7324   28.5660 H   0  0  0  0  0  0  0  0  0  0  0  0
    7.5431   -2.0292   26.1459 H   0  0  0  0  0  0  0  0  0  0  0  0
    5.5046    0.3845   27.2537 H   0  0  0  0  0  0  0  0  0  0  0  0
    5.4788   -0.0376   25.6838 H   0  0  0  0  0  0  0  0  0  0  0  0
    9.3414   -3.1246   25.9900 H   0  0  0  0  0  0  0  0  0  0  0  0
   10.8317   -3.1365   24.0106 H   0  0  0  0  0  0  0  0  0  0  0  0
   11.5290   -3.8277   25.4416 H   0  0  0  0  0  0  0  0  0  0  0  0
   12.2725   -0.9828   24.5557 H   0  0  0  0  0  0  0  0  0  0  0  0
   14.1373   -0.6849   22.6097 H   0  0  0  0  0  0  0  0  0  0  0  0
   14.9328   -2.0415   20.4728 H   0  0  0  0  0  0  0  0  0  0  0  0
   14.1902   -4.5657   20.6366 H   0  0  0  0  0  0  0  0  0  0  0  0
   14.4290   -0.2632   25.3246 H   0  0  0  0  0  0  0  0  0  0  0  0
   15.4340   -1.6937   24.9810 H   0  0  0  0  0  0  0  0  0  0  0  0
   15.6871   -0.1776   27.2716 H   0  0  0  0  0  0  0  0  0  0  0  0
   16.1024   -1.8982   27.2076 H   0  0  0  0  0  0  0  0  0  0  0  0
   13.9830   -0.7403   28.7669 H   0  0  0  0  0  0  0  0  0  0  0  0
   14.3493   -2.4570   28.5321 H   0  0  0  0  0  0  0  0  0  0  0  0
   12.2219   -2.3888   27.5244 H   0  0  0  0  0  0  0  0  0  0  0  0
   12.4285   -0.6982   26.9922 H   0  0  0  0  0  0  0  0  0  0  0  0
  1  2  1  0
  2  3  1  0
  3  4  1  0
  2  5  1  0
  5  6  2  0
  5  7  1  0
  7  8  1  0
  8  9  1  0
  9 10  1  0
 10 11  2  0
 11 12  1  0
 12 13  2  0
 13 14  1  0
  9 15  1  0
 15 16  1  0
 16 17  1  0
 17 18  1  0
 18 19  1  0
 14 10  1  0
 19 15  1  0
  1 20  1  0
  1 21  1  0
  1 22  1  0
  2 23  1  0
  4 24  1  0
  4 25  1  0
  7 26  1  0
  8 27  1  0
  8 28  1  0
  9 29  1  0
 11 30  1  0
 12 31  1  0
 13 32  1  0
 16 33  1  0
 16 34  1  0
 17 35  1  0
 17 36  1  0
 18 37  1  0
 18 38  1  0
 19 39  1  0
 19 40  1  0
M  END
>  <Energy>  (906) 
93.967289257050624

>  <compound_id>  (906) 
26117

>  <target_id>  (906) 
1

>  <reference_id>  (906) 
44

>  <inspiration_ids>  (906) 
[66, 44]

>  <energy_score>  (906) 
-57.86039780780118

>  <distance_score>  (906) 
8.115386741975767

>  <path>  (906) 
/opt/xchem-fragalysis-2/maxwin/BulkDock/SCRATCH/511025/C26117-P44/C26117-P44.minimised.mol

>  <scratch_subdir>  (906) 
/opt/xchem-fragalysis-2/maxwin/BulkDock/SCRATCH/511025/C26117-P44

>  <fragmenstein_runtime>  (906) 
15.355077505111694

>  <fragmenstein_outcome>  (906) 
too moved

>  <fragmenstein_mode>  (906) 
expansion

>  <fragmenstein_error>  (906) 


$$$$
C63576-P66
     RDKit          3D

 39 41  0  0  0  0  0  0  0  0999 V2000
    4.8532    0.1085   21.3990 O   0  0  0  0  0  0  0  0  0  0  0  0
    5.6044   -0.7791   21.5040 C   0  0  0  0  0  0  0  0  0  0  0  0
    5.5011   -1.8406   22.9232 N   0  0  0  0  0  0  0  0  0  0  0  0
    4.5077   -1.8377   24.1910 C   0  0  0  0  0  0  0  0  0  0  0  0
    4.4628   -1.1067   25.6247 C   0  0  0  0  0  0  0  0  0  0  0  0
    5.5795   -0.4900   26.4885 C   0  0  0  0  0  0  0  0  0  0  0  0
    4.8386   -0.0071   27.7537 C   0  0  0  0  0  0  0  0  0  0  0  0
    3.5216    0.4804   27.2204 C   0  0  0  0  0  0  0  0  0  0  0  0
    2.3690    0.7314   28.1660 C   0  0  0  0  0  0  0  0  0  0  0  0
    3.0266    1.8896   27.4753 C   0  0  0  0  0  0  0  0  0  0  0  0
    3.2810   -0.1662   25.8773 C   0  0  0  0  0  0  0  0  0  0  0  0
    6.6574   -1.2250   20.4205 N   0  0  0  0  0  0  0  0  0  0  0  0
    6.8517   -0.7810   19.0819 N   0  0  0  0  0  0  0  0  0  0  0  0
    7.8730   -0.4472   18.4517 C   0  0  0  0  0  0  0  0  0  0  0  0
    8.9602   -0.3109   18.8066 O   0  0  0  0  0  0  0  0  0  0  0  0
    7.1833   -0.3736   16.6440 C   0  0  0  0  0  0  0  0  0  0  0  0
    7.8310   -1.2227   15.5047 C   0  0  0  0  0  0  0  0  0  0  0  0
    7.1460   -1.7585   14.3810 C   0  0  0  0  0  0  0  0  0  0  0  0
    5.8087   -1.6081   14.4152 C   0  0  0  0  0  0  0  0  0  0  0  0
    5.3128   -0.7212   15.7682 S   0  0  0  0  0  0  0  0  0  0  0  0
    6.1445   -2.5790   22.8100 H   0  0  0  0  0  0  0  0  0  0  0  0
    3.5024   -1.9076   23.7893 H   0  0  0  0  0  0  0  0  0  0  0  0
    4.5687   -2.8471   24.5508 H   0  0  0  0  0  0  0  0  0  0  0  0
    4.1631   -1.9599   26.2603 H   0  0  0  0  0  0  0  0  0  0  0  0
    6.0282    0.4164   26.0802 H   0  0  0  0  0  0  0  0  0  0  0  0
    6.3754   -1.1994   26.7298 H   0  0  0  0  0  0  0  0  0  0  0  0
    4.6826   -0.8471   28.4405 H   0  0  0  0  0  0  0  0  0  0  0  0
    5.4068    0.7692   28.2756 H   0  0  0  0  0  0  0  0  0  0  0  0
    1.3723    0.4480   27.8468 H   0  0  0  0  0  0  0  0  0  0  0  0
    2.5411    0.6107   29.2293 H   0  0  0  0  0  0  0  0  0  0  0  0
    3.6439    2.5528   28.0700 H   0  0  0  0  0  0  0  0  0  0  0  0
    2.4738    2.3909   26.6884 H   0  0  0  0  0  0  0  0  0  0  0  0
    2.3943   -0.7927   25.9584 H   0  0  0  0  0  0  0  0  0  0  0  0
    3.1875    0.5984   25.1116 H   0  0  0  0  0  0  0  0  0  0  0  0
    7.0940   -2.0381   20.7190 H   0  0  0  0  0  0  0  0  0  0  0  0
    6.0932   -0.8770   18.4292 H   0  0  0  0  0  0  0  0  0  0  0  0
    8.8612   -1.5678   15.5719 H   0  0  0  0  0  0  0  0  0  0  0  0
    7.6214   -2.3272   13.6132 H   0  0  0  0  0  0  0  0  0  0  0  0
    5.0847   -1.9630   13.6954 H   0  0  0  0  0  0  0  0  0  0  0  0
  1  2  2  0
  2  3  1  0
  3  4  1  0
  4  5  1  0
  5  6  1  0
  6  7  1  0
  7  8  1  0
  8  9  1  0
  9 10  1  0
  8 11  1  0
  2 12  1  0
 12 13  1  0
 13 14  1  0
 14 15  2  0
 14 16  1  0
 16 17  2  0
 17 18  1  0
 18 19  2  0
 19 20  1  0
 11  5  1  0
 20 16  1  0
 10  8  1  0
  3 21  1  0
  4 22  1  0
  4 23  1  0
  5 24  1  0
  6 25  1  0
  6 26  1  0
  7 27  1  0
  7 28  1  0
  9 29  1  0
  9 30  1  0
 10 31  1  0
 10 32  1  0
 11 33  1  0
 11 34  1  0
 12 35  1  0
 13 36  1  0
 17 37  1  0
 18 38  1  0
 19 39  1  0
M  END
>  <Energy>  (907) 
277.38840213344446

>  <compound_id>  (907) 
63576

>  <target_id>  (907) 
1

>  <reference_id>  (907) 
66

>  <inspiration_ids>  (907) 
[66, 44]

>  <energy_score>  (907) 
218.84921632490432

>  <distance_score>  (907) 
7.163737938395038

>  <path>  (907) 
/opt/xchem-fragalysis-2/maxwin/BulkDock/SCRATCH/511025/C63576-P66/C63576-P66.minimised.mol

>  <scratch_subdir>  (907) 
/opt/xchem-fragalysis-2/maxwin/BulkDock/SCRATCH/511025/C63576-P66

>  <fragmenstein_runtime>  (907) 
18.32654643058777

>  <fragmenstein_outcome>  (907) 
too moved

>  <fragmenstein_mode>  (907) 
expansion

>  <fragmenstein_error>  (907) 


$$$$
C63576-P44
     RDKit          3D

 39 41  0  0  0  0  0  0  0  0999 V2000
    3.0319    5.0777   19.0332 O   0  0  0  0  0  0  0  0  0  0  0  0
    3.6380    5.6093   19.8871 C   0  0  0  0  0  0  0  0  0  0  0  0
    3.1687    6.1851   21.1905 N   0  0  0  0  0  0  0  0  0  0  0  0
    1.8396    6.2572   21.7700 C   0  0  0  0  0  0  0  0  0  0  0  0
    1.4566    5.0541   22.6535 C   0  0  0  0  0  0  0  0  0  0  0  0
    2.0946    5.0764   24.0504 C   0  0  0  0  0  0  0  0  0  0  0  0
    1.2094    4.1421   24.8796 C   0  0  0  0  0  0  0  0  0  0  0  0
   -0.1700    4.3732   24.3237 C   0  0  0  0  0  0  0  0  0  0  0  0
   -1.3010    3.4206   24.6391 C   0  0  0  0  0  0  0  0  0  0  0  0
   -1.2954    4.7917   25.2450 C   0  0  0  0  0  0  0  0  0  0  0  0
   -0.0581    5.0259   22.9652 C   0  0  0  0  0  0  0  0  0  0  0  0
    5.1297    5.8213   20.0366 N   0  0  0  0  0  0  0  0  0  0  0  0
    6.1708    5.3761   19.2736 N   0  0  0  0  0  0  0  0  0  0  0  0
    6.6493    5.8057   17.9858 C   0  0  0  0  0  0  0  0  0  0  0  0
    6.3063    6.7175   17.2898 O   0  0  0  0  0  0  0  0  0  0  0  0
    7.6735    4.8582   17.4464 C   0  0  0  0  0  0  0  0  0  0  0  0
    8.2128    4.8581   16.1657 C   0  0  0  0  0  0  0  0  0  0  0  0
    9.0133    3.7102   15.8838 C   0  0  0  0  0  0  0  0  0  0  0  0
    9.0845    2.8653   16.9638 C   0  0  0  0  0  0  0  0  0  0  0  0
    8.2880    3.5101   18.3307 S   0  0  0  0  0  0  0  0  0  0  0  0
    3.9348    6.6382   21.6475 H   0  0  0  0  0  0  0  0  0  0  0  0
    1.1414    6.3159   20.9274 H   0  0  0  0  0  0  0  0  0  0  0  0
    1.7758    7.1963   22.3295 H   0  0  0  0  0  0  0  0  0  0  0  0
    1.7321    4.1169   22.1512 H   0  0  0  0  0  0  0  0  0  0  0  0
    2.0598    6.0885   24.4722 H   0  0  0  0  0  0  0  0  0  0  0  0
    3.1386    4.7488   24.0377 H   0  0  0  0  0  0  0  0  0  0  0  0
    1.5086    3.1013   24.7159 H   0  0  0  0  0  0  0  0  0  0  0  0
    1.2897    4.3636   25.9482 H   0  0  0  0  0  0  0  0  0  0  0  0
   -2.0514    3.2219   23.8810 H   0  0  0  0  0  0  0  0  0  0  0  0
   -1.1280    2.5960   25.3203 H   0  0  0  0  0  0  0  0  0  0  0  0
   -1.1073    4.8718   26.3102 H   0  0  0  0  0  0  0  0  0  0  0  0
   -2.0394    5.4977   24.8891 H   0  0  0  0  0  0  0  0  0  0  0  0
   -0.5982    4.4676   22.1930 H   0  0  0  0  0  0  0  0  0  0  0  0
   -0.4657    6.0431   23.0028 H   0  0  0  0  0  0  0  0  0  0  0  0
    5.3063    6.3863   20.8454 H   0  0  0  0  0  0  0  0  0  0  0  0
    6.6394    4.5106   19.5297 H   0  0  0  0  0  0  0  0  0  0  0  0
    7.9784    5.6287   15.4395 H   0  0  0  0  0  0  0  0  0  0  0  0
    9.4812    3.5030   14.9296 H   0  0  0  0  0  0  0  0  0  0  0  0
    9.5950    1.9165   17.0271 H   0  0  0  0  0  0  0  0  0  0  0  0
  1  2  2  0
  2  3  1  0
  3  4  1  0
  4  5  1  0
  5  6  1  0
  6  7  1  0
  7  8  1  0
  8  9  1  0
  9 10  1  0
  8 11  1  0
  2 12  1  0
 12 13  1  0
 13 14  1  0
 14 15  2  0
 14 16  1  0
 16 17  2  0
 17 18  1  0
 18 19  2  0
 19 20  1  0
 11  5  1  0
 20 16  1  0
 10  8  1  0
  3 21  1  0
  4 22  1  0
  4 23  1  0
  5 24  1  0
  6 25  1  0
  6 26  1  0
  7 27  1  0
  7 28  1  0
  9 29  1  0
  9 30  1  0
 10 31  1  0
 10 32  1  0
 11 33  1  0
 11 34  1  0
 12 35  1  0
 13 36  1  0
 17 37  1  0
 18 38  1  0
 19 39  1  0
M  END
>  <Energy>  (908) 
47.466018594573789

>  <compound_id>  (908) 
63576

>  <target_id>  (908) 
1

>  <reference_id>  (908) 
44

>  <inspiration_ids>  (908) 
[66, 44]

>  <energy_score>  (908) 
-11.073167213968816

>  <distance_score>  (908) 
8.285264223481803

>  <path>  (908) 
/opt/xchem-fragalysis-2/maxwin/BulkDock/SCRATCH/511025/C63576-P44/C63576-P44.minimised.mol

>  <scratch_subdir>  (908) 
/opt/xchem-fragalysis-2/maxwin/BulkDock/SCRATCH/511025/C63576-P44

>  <fragmenstein_runtime>  (908) 
17.552171230316162

>  <fragmenstein_outcome>  (908) 
too moved

>  <fragmenstein_mode>  (908) 
expansion

>  <fragmenstein_error>  (908) 


$$$$
C51137-P127
     RDKit          3D

 26 27  0  0  0  0  0  0  0  0999 V2000
   -9.5695    0.0113    7.9184 C   0  0  0  0  0  0  0  0  0  0  0  0
  -10.7237   -0.6233    7.6198 C   0  0  0  0  0  0  0  0  0  0  0  0
  -11.9791   -0.3217    8.2993 C   0  0  0  0  0  0  0  0  0  0  0  0
  -12.2021    0.1685    9.6177 C   0  0  0  0  0  0  0  0  0  0  0  0
  -13.4994    0.2207    9.9528 N   0  0  0  0  0  0  0  0  0  0  0  0
  -14.1110   -0.2588    8.8566 N   0  0  0  0  0  0  0  0  0  0  0  0
  -13.2577   -0.5266    7.8244 C   0  0  0  0  0  0  0  0  0  0  0  0
  -10.7597   -1.7987    6.6373 C   0  0  0  0  0  0  0  0  0  0  0  0
   -9.5981   -2.8041    6.7801 C   0  0  0  0  0  0  0  0  0  0  0  0
   -8.2970   -2.4186    6.0880 C   0  0  0  0  0  0  0  0  0  0  0  0
   -8.0183   -0.9251    6.0325 C   0  0  0  0  0  0  0  0  0  0  0  0
   -8.1834   -0.1985    7.3623 C   0  0  0  0  0  0  0  0  0  0  0  0
   -9.6017    0.7980    8.6722 H   0  0  0  0  0  0  0  0  0  0  0  0
  -11.4633    0.4562   10.3543 H   0  0  0  0  0  0  0  0  0  0  0  0
  -15.1119   -0.4132    8.8872 H   0  0  0  0  0  0  0  0  0  0  0  0
  -13.6272   -0.9181    6.8879 H   0  0  0  0  0  0  0  0  0  0  0  0
  -11.6776   -2.3813    6.7820 H   0  0  0  0  0  0  0  0  0  0  0  0
  -10.8193   -1.4155    5.6111 H   0  0  0  0  0  0  0  0  0  0  0  0
   -9.9154   -3.7668    6.3617 H   0  0  0  0  0  0  0  0  0  0  0  0
   -9.3896   -2.9873    7.8410 H   0  0  0  0  0  0  0  0  0  0  0  0
   -7.4660   -2.9346    6.5852 H   0  0  0  0  0  0  0  0  0  0  0  0
   -8.3141   -2.7984    5.0586 H   0  0  0  0  0  0  0  0  0  0  0  0
   -6.9880   -0.7853    5.6812 H   0  0  0  0  0  0  0  0  0  0  0  0
   -8.6567   -0.4539    5.2746 H   0  0  0  0  0  0  0  0  0  0  0  0
   -7.7505    0.8024    7.2315 H   0  0  0  0  0  0  0  0  0  0  0  0
   -7.5735   -0.6911    8.1291 H   0  0  0  0  0  0  0  0  0  0  0  0
  1  2  2  0
  2  3  1  0
  3  4  1  0
  4  5  2  0
  5  6  1  0
  6  7  1  0
  2  8  1  0
  8  9  1  0
  9 10  1  0
 10 11  1  0
 11 12  1  0
 12  1  1  0
  7  3  2  0
  1 13  1  0
  4 14  1  0
  6 15  1  0
  7 16  1  0
  8 17  1  0
  8 18  1  0
  9 19  1  0
  9 20  1  0
 10 21  1  0
 10 22  1  0
 11 23  1  0
 11 24  1  0
 12 25  1  0
 12 26  1  0
M  END
>  <Energy>  (909) 
21.754804637466933

>  <compound_id>  (909) 
51137

>  <target_id>  (909) 
1

>  <reference_id>  (909) 
127

>  <inspiration_ids>  (909) 
[127, 95]

>  <energy_score>  (909) 
-17.788291413296037

>  <distance_score>  (909) 
1.8095488850694275

>  <path>  (909) 
/opt/xchem-fragalysis-2/maxwin/BulkDock/SCRATCH/511025/C51137-P127/C51137-P127.minimised.mol

>  <scratch_subdir>  (909) 
/opt/xchem-fragalysis-2/maxwin/BulkDock/SCRATCH/511025/C51137-P127

>  <fragmenstein_runtime>  (909) 
38.41712665557861

>  <fragmenstein_outcome>  (909) 
too moved

>  <fragmenstein_mode>  (909) 
expansion

>  <fragmenstein_error>  (909) 


$$$$
C51137-P95
     RDKit          3D

 26 27  0  0  0  0  0  0  0  0999 V2000
   -9.6456    0.1475    7.7298 C   0  0  0  0  0  0  0  0  0  0  0  0
  -10.6977   -0.6954    7.7230 C   0  0  0  0  0  0  0  0  0  0  0  0
  -11.9072   -0.4578    8.4923 C   0  0  0  0  0  0  0  0  0  0  0  0
  -12.0697    0.0603    9.8038 C   0  0  0  0  0  0  0  0  0  0  0  0
  -13.3475    0.0833   10.2094 N   0  0  0  0  0  0  0  0  0  0  0  0
  -14.0089   -0.4224    9.1533 N   0  0  0  0  0  0  0  0  0  0  0  0
  -13.2024   -0.7109    8.0903 C   0  0  0  0  0  0  0  0  0  0  0  0
  -10.6951   -1.9478    6.8552 C   0  0  0  0  0  0  0  0  0  0  0  0
   -9.4875   -2.8972    6.9817 C   0  0  0  0  0  0  0  0  0  0  0  0
   -8.2029   -2.4278    6.3153 C   0  0  0  0  0  0  0  0  0  0  0  0
   -7.5818   -1.2184    6.9981 C   0  0  0  0  0  0  0  0  0  0  0  0
   -8.4175    0.0514    6.8646 C   0  0  0  0  0  0  0  0  0  0  0  0
   -9.6993    1.0430    8.3471 H   0  0  0  0  0  0  0  0  0  0  0  0
  -11.3000    0.3995   10.4835 H   0  0  0  0  0  0  0  0  0  0  0  0
  -15.0069   -0.5795    9.2346 H   0  0  0  0  0  0  0  0  0  0  0  0
  -13.6092   -1.1212    7.1766 H   0  0  0  0  0  0  0  0  0  0  0  0
  -11.5716   -2.5568    7.1038 H   0  0  0  0  0  0  0  0  0  0  0  0
  -10.8206   -1.6461    5.8074 H   0  0  0  0  0  0  0  0  0  0  0  0
   -9.7661   -3.8489    6.5119 H   0  0  0  0  0  0  0  0  0  0  0  0
   -9.2782   -3.1154    8.0336 H   0  0  0  0  0  0  0  0  0  0  0  0
   -7.4777   -3.2507    6.3452 H   0  0  0  0  0  0  0  0  0  0  0  0
   -8.3867   -2.2121    5.2560 H   0  0  0  0  0  0  0  0  0  0  0  0
   -7.3883   -1.4363    8.0554 H   0  0  0  0  0  0  0  0  0  0  0  0
   -6.6043   -1.0345    6.5347 H   0  0  0  0  0  0  0  0  0  0  0  0
   -8.6961    0.2234    5.8176 H   0  0  0  0  0  0  0  0  0  0  0  0
   -7.7717    0.8967    7.1383 H   0  0  0  0  0  0  0  0  0  0  0  0
  1  2  2  0
  2  3  1  0
  3  4  1  0
  4  5  2  0
  5  6  1  0
  6  7  1  0
  2  8  1  0
  8  9  1  0
  9 10  1  0
 10 11  1  0
 11 12  1  0
 12  1  1  0
  7  3  2  0
  1 13  1  0
  4 14  1  0
  6 15  1  0
  7 16  1  0
  8 17  1  0
  8 18  1  0
  9 19  1  0
  9 20  1  0
 10 21  1  0
 10 22  1  0
 11 23  1  0
 11 24  1  0
 12 25  1  0
 12 26  1  0
M  END
>  <Energy>  (910) 
21.059596625444811

>  <compound_id>  (910) 
51137

>  <target_id>  (910) 
1

>  <reference_id>  (910) 
95

>  <inspiration_ids>  (910) 
[127, 95]

>  <energy_score>  (910) 
-18.483499425317405

>  <distance_score>  (910) 
1.428753583434263

>  <path>  (910) 
/opt/xchem-fragalysis-2/maxwin/BulkDock/SCRATCH/511025/C51137-P95/C51137-P95.minimised.mol

>  <scratch_subdir>  (910) 
/opt/xchem-fragalysis-2/maxwin/BulkDock/SCRATCH/511025/C51137-P95

>  <fragmenstein_runtime>  (910) 
29.2368004322052

>  <fragmenstein_outcome>  (910) 
too moved

>  <fragmenstein_mode>  (910) 
expansion

>  <fragmenstein_error>  (910) 


$$$$
C51143-P127
     RDKit          3D

 23 24  0  0  0  0  0  0  0  0999 V2000
   -7.2454   -0.4336    6.7128 C   0  0  0  0  0  0  0  0  0  0  0  0
   -7.2788   -1.1503    5.5715 C   0  0  0  0  0  0  0  0  0  0  0  0
   -8.2941   -1.0191    4.5587 C   0  0  0  0  0  0  0  0  0  0  0  0
   -9.5813   -0.4560    4.7595 C   0  0  0  0  0  0  0  0  0  0  0  0
  -10.2031   -0.5011    3.5369 C   0  0  0  0  0  0  0  0  0  0  0  0
   -9.3036   -1.0692    2.6904 N   0  0  0  0  0  0  0  0  0  0  0  0
   -8.1480   -1.4052    3.2812 N   0  0  0  0  0  0  0  0  0  0  0  0
   -6.2057   -2.1650    5.2397 C   0  0  0  0  0  0  0  0  0  0  0  0
   -5.2504   -2.4519    6.3981 C   0  0  0  0  0  0  0  0  0  0  0  0
   -4.8754   -1.1778    7.1402 C   0  0  0  0  0  0  0  0  0  0  0  0
   -6.1200   -0.4955    7.6981 C   0  0  0  0  0  0  0  0  0  0  0  0
   -8.0303    0.2799    6.9472 H   0  0  0  0  0  0  0  0  0  0  0  0
  -10.0018   -0.0679    5.6764 H   0  0  0  0  0  0  0  0  0  0  0  0
  -11.1797   -0.1832    3.2036 H   0  0  0  0  0  0  0  0  0  0  0  0
   -9.4055   -1.2617    1.6996 H   0  0  0  0  0  0  0  0  0  0  0  0
   -5.6154   -1.7904    4.3926 H   0  0  0  0  0  0  0  0  0  0  0  0
   -6.6551   -3.1163    4.9270 H   0  0  0  0  0  0  0  0  0  0  0  0
   -4.3471   -2.9383    6.0171 H   0  0  0  0  0  0  0  0  0  0  0  0
   -5.7269   -3.1553    7.0889 H   0  0  0  0  0  0  0  0  0  0  0  0
   -4.1766   -1.4002    7.9541 H   0  0  0  0  0  0  0  0  0  0  0  0
   -4.3539   -0.4964    6.4555 H   0  0  0  0  0  0  0  0  0  0  0  0
   -6.4689   -1.0213    8.5905 H   0  0  0  0  0  0  0  0  0  0  0  0
   -5.8557    0.5216    8.0042 H   0  0  0  0  0  0  0  0  0  0  0  0
  1  2  2  0
  2  3  1  0
  3  4  1  0
  4  5  2  0
  5  6  1  0
  6  7  1  0
  2  8  1  0
  8  9  1  0
  9 10  1  0
 10 11  1  0
 11  1  1  0
  7  3  2  0
  1 12  1  0
  4 13  1  0
  5 14  1  0
  6 15  1  0
  8 16  1  0
  8 17  1  0
  9 18  1  0
  9 19  1  0
 10 20  1  0
 10 21  1  0
 11 22  1  0
 11 23  1  0
M  END
>  <Energy>  (911) 
4.0731399701233233

>  <compound_id>  (911) 
51143

>  <target_id>  (911) 
1

>  <reference_id>  (911) 
127

>  <inspiration_ids>  (911) 
[127, 95]

>  <energy_score>  (911) 
-18.734715233596603

>  <distance_score>  (911) 
1.2731388985685237

>  <path>  (911) 
/opt/xchem-fragalysis-2/maxwin/BulkDock/SCRATCH/511025/C51143-P127/C51143-P127.minimised.mol

>  <scratch_subdir>  (911) 
/opt/xchem-fragalysis-2/maxwin/BulkDock/SCRATCH/511025/C51143-P127

>  <fragmenstein_runtime>  (911) 
3.1953704357147217

>  <fragmenstein_outcome>  (911) 
too moved

>  <fragmenstein_mode>  (911) 
expansion

>  <fragmenstein_error>  (911) 


$$$$
C51143-P95
     RDKit          3D

 23 24  0  0  0  0  0  0  0  0999 V2000
   -7.3402   -0.5047    6.6642 C   0  0  0  0  0  0  0  0  0  0  0  0
   -7.3855   -1.2118    5.5167 C   0  0  0  0  0  0  0  0  0  0  0  0
   -8.3736   -1.0229    4.4882 C   0  0  0  0  0  0  0  0  0  0  0  0
   -9.6844   -0.5295    4.7087 C   0  0  0  0  0  0  0  0  0  0  0  0
  -10.2792   -0.4913    3.4732 C   0  0  0  0  0  0  0  0  0  0  0  0
   -9.3439   -0.9519    2.6014 N   0  0  0  0  0  0  0  0  0  0  0  0
   -8.1829   -1.2893    3.1855 N   0  0  0  0  0  0  0  0  0  0  0  0
   -6.3732   -2.2912    5.2020 C   0  0  0  0  0  0  0  0  0  0  0  0
   -5.4841   -2.6569    6.3900 C   0  0  0  0  0  0  0  0  0  0  0  0
   -5.0477   -1.4143    7.1484 C   0  0  0  0  0  0  0  0  0  0  0  0
   -6.2539   -0.6503    7.6846 C   0  0  0  0  0  0  0  0  0  0  0  0
   -8.0917    0.2502    6.8791 H   0  0  0  0  0  0  0  0  0  0  0  0
  -10.1427   -0.2534    5.6478 H   0  0  0  0  0  0  0  0  0  0  0  0
  -11.2666   -0.1966    3.1501 H   0  0  0  0  0  0  0  0  0  0  0  0
   -9.4274   -1.0671    1.5968 H   0  0  0  0  0  0  0  0  0  0  0  0
   -5.7301   -1.9451    4.3817 H   0  0  0  0  0  0  0  0  0  0  0  0
   -6.8744   -3.2050    4.8576 H   0  0  0  0  0  0  0  0  0  0  0  0
   -4.6011   -3.1961    6.0346 H   0  0  0  0  0  0  0  0  0  0  0  0
   -6.0323   -3.3313    7.0556 H   0  0  0  0  0  0  0  0  0  0  0  0
   -4.3696   -1.6709    7.9675 H   0  0  0  0  0  0  0  0  0  0  0  0
   -4.4797   -0.7805    6.4617 H   0  0  0  0  0  0  0  0  0  0  0  0
   -6.6692   -1.1588    8.5601 H   0  0  0  0  0  0  0  0  0  0  0  0
   -5.9280    0.3430    8.0132 H   0  0  0  0  0  0  0  0  0  0  0  0
  1  2  2  0
  2  3  1  0
  3  4  1  0
  4  5  2  0
  5  6  1  0
  6  7  1  0
  2  8  1  0
  8  9  1  0
  9 10  1  0
 10 11  1  0
 11  1  1  0
  7  3  2  0
  1 12  1  0
  4 13  1  0
  5 14  1  0
  6 15  1  0
  8 16  1  0
  8 17  1  0
  9 18  1  0
  9 19  1  0
 10 20  1  0
 10 21  1  0
 11 22  1  0
 11 23  1  0
M  END
>  <Energy>  (912) 
4.2405834476172313

>  <compound_id>  (912) 
51143

>  <target_id>  (912) 
1

>  <reference_id>  (912) 
95

>  <inspiration_ids>  (912) 
[127, 95]

>  <energy_score>  (912) 
-18.56727175610237

>  <distance_score>  (912) 
1.2719735403742531

>  <path>  (912) 
/opt/xchem-fragalysis-2/maxwin/BulkDock/SCRATCH/511025/C51143-P95/C51143-P95.minimised.mol

>  <scratch_subdir>  (912) 
/opt/xchem-fragalysis-2/maxwin/BulkDock/SCRATCH/511025/C51143-P95

>  <fragmenstein_runtime>  (912) 
3.048262596130371

>  <fragmenstein_outcome>  (912) 
too moved

>  <fragmenstein_mode>  (912) 
expansion

>  <fragmenstein_error>  (912) 


$$$$
C51144-P127
     RDKit          3D

 22 23  0  0  0  0  0  0  0  0999 V2000
   -6.3773   -0.1240    7.2981 C   0  0  0  0  0  0  0  0  0  0  0  0
   -5.4921   -0.9080    6.6747 N   0  0  0  0  0  0  0  0  0  0  0  0
   -6.2276   -1.9796    6.3350 N   0  0  0  0  0  0  0  0  0  0  0  0
   -7.5476   -1.8694    6.6678 C   0  0  0  0  0  0  0  0  0  0  0  0
   -7.6874   -0.6633    7.3113 C   0  0  0  0  0  0  0  0  0  0  0  0
   -8.8361   -0.1344    7.8232 N   0  0  0  0  0  0  0  0  0  0  0  0
   -8.8266    1.0840    8.6434 C   0  0  0  0  0  0  0  0  0  0  0  0
   -9.9131    2.0757    8.2300 C   0  0  0  0  0  0  0  0  0  0  0  0
  -11.6115    1.4625    8.4677 S   0  0  0  0  0  0  0  0  0  0  0  0
  -11.2528   -0.3257    8.5230 C   0  0  0  0  0  0  0  0  0  0  0  0
  -10.1440   -0.7674    7.5623 C   0  0  0  0  0  0  0  0  0  0  0  0
   -6.0269    0.8175    7.6933 H   0  0  0  0  0  0  0  0  0  0  0  0
   -5.7683   -2.7543    5.8681 H   0  0  0  0  0  0  0  0  0  0  0  0
   -8.2428   -2.6597    6.4274 H   0  0  0  0  0  0  0  0  0  0  0  0
   -8.9352    0.8075    9.6991 H   0  0  0  0  0  0  0  0  0  0  0  0
   -7.8726    1.6113    8.5568 H   0  0  0  0  0  0  0  0  0  0  0  0
   -9.7991    2.3376    7.1723 H   0  0  0  0  0  0  0  0  0  0  0  0
   -9.8106    2.9997    8.8081 H   0  0  0  0  0  0  0  0  0  0  0  0
  -12.1837   -0.8468    8.2788 H   0  0  0  0  0  0  0  0  0  0  0  0
  -10.9902   -0.5817    9.5553 H   0  0  0  0  0  0  0  0  0  0  0  0
  -10.0511   -1.8550    7.6459 H   0  0  0  0  0  0  0  0  0  0  0  0
  -10.4426   -0.5507    6.5286 H   0  0  0  0  0  0  0  0  0  0  0  0
  1  2  2  0
  2  3  1  0
  3  4  1  0
  4  5  2  0
  5  6  1  0
  6  7  1  0
  7  8  1  0
  8  9  1  0
  9 10  1  0
 10 11  1  0
  5  1  1  0
 11  6  1  0
  1 12  1  0
  3 13  1  0
  4 14  1  0
  7 15  1  0
  7 16  1  0
  8 17  1  0
  8 18  1  0
 10 19  1  0
 10 20  1  0
 11 21  1  0
 11 22  1  0
M  END
>  <Energy>  (913) 
57.254655567803695

>  <compound_id>  (913) 
51144

>  <target_id>  (913) 
1

>  <reference_id>  (913) 
127

>  <inspiration_ids>  (913) 
[127, 95]

>  <energy_score>  (913) 
-22.03192367745288

>  <distance_score>  (913) 
1.1391175561417979

>  <path>  (913) 
/opt/xchem-fragalysis-2/maxwin/BulkDock/SCRATCH/511025/C51144-P127/C51144-P127.minimised.mol

>  <scratch_subdir>  (913) 
/opt/xchem-fragalysis-2/maxwin/BulkDock/SCRATCH/511025/C51144-P127

>  <fragmenstein_runtime>  (913) 
2.076122522354126

>  <fragmenstein_outcome>  (913) 
too moved

>  <fragmenstein_mode>  (913) 
expansion

>  <fragmenstein_error>  (913) 


$$$$
C51144-P95
     RDKit          3D

 22 23  0  0  0  0  0  0  0  0999 V2000
   -6.4523   -0.2688    7.5527 C   0  0  0  0  0  0  0  0  0  0  0  0
   -5.5917   -0.9975    6.8369 N   0  0  0  0  0  0  0  0  0  0  0  0
   -6.3714   -1.9558    6.3130 N   0  0  0  0  0  0  0  0  0  0  0  0
   -7.6949   -1.8140    6.6152 C   0  0  0  0  0  0  0  0  0  0  0  0
   -7.7914   -0.7082    7.4248 C   0  0  0  0  0  0  0  0  0  0  0  0
   -8.9255   -0.1755    7.9622 N   0  0  0  0  0  0  0  0  0  0  0  0
   -8.8790    1.0346    8.7965 C   0  0  0  0  0  0  0  0  0  0  0  0
  -10.0728    1.9605    8.5630 C   0  0  0  0  0  0  0  0  0  0  0  0
  -11.6701    1.2412    9.0596 S   0  0  0  0  0  0  0  0  0  0  0  0
  -11.2542   -0.5238    8.8438 C   0  0  0  0  0  0  0  0  0  0  0  0
  -10.2457   -0.7974    7.7248 C   0  0  0  0  0  0  0  0  0  0  0  0
   -6.0647    0.5607    8.1236 H   0  0  0  0  0  0  0  0  0  0  0  0
   -5.9366   -2.6776    5.7489 H   0  0  0  0  0  0  0  0  0  0  0  0
   -8.4274   -2.5080    6.2304 H   0  0  0  0  0  0  0  0  0  0  0  0
   -8.8106    0.7454    9.8521 H   0  0  0  0  0  0  0  0  0  0  0  0
   -7.9837    1.6255    8.5743 H   0  0  0  0  0  0  0  0  0  0  0  0
  -10.1401    2.2308    7.5034 H   0  0  0  0  0  0  0  0  0  0  0  0
   -9.9377    2.8880    9.1288 H   0  0  0  0  0  0  0  0  0  0  0  0
  -12.1874   -1.0596    8.6428 H   0  0  0  0  0  0  0  0  0  0  0  0
  -10.8645   -0.8848    9.8017 H   0  0  0  0  0  0  0  0  0  0  0  0
  -10.1441   -1.8857    7.6476 H   0  0  0  0  0  0  0  0  0  0  0  0
  -10.6401   -0.4437    6.7640 H   0  0  0  0  0  0  0  0  0  0  0  0
  1  2  2  0
  2  3  1  0
  3  4  1  0
  4  5  2  0
  5  6  1  0
  6  7  1  0
  7  8  1  0
  8  9  1  0
  9 10  1  0
 10 11  1  0
  5  1  1  0
 11  6  1  0
  1 12  1  0
  3 13  1  0
  4 14  1  0
  7 15  1  0
  7 16  1  0
  8 17  1  0
  8 18  1  0
 10 19  1  0
 10 20  1  0
 11 21  1  0
 11 22  1  0
M  END
>  <Energy>  (914) 
56.679906952254434

>  <compound_id>  (914) 
51144

>  <target_id>  (914) 
1

>  <reference_id>  (914) 
95

>  <inspiration_ids>  (914) 
[127, 95]

>  <energy_score>  (914) 
-22.606672293002987

>  <distance_score>  (914) 
1.0984365109138283

>  <path>  (914) 
/opt/xchem-fragalysis-2/maxwin/BulkDock/SCRATCH/511025/C51144-P95/C51144-P95.minimised.mol

>  <scratch_subdir>  (914) 
/opt/xchem-fragalysis-2/maxwin/BulkDock/SCRATCH/511025/C51144-P95

>  <fragmenstein_runtime>  (914) 
2.1096580028533936

>  <fragmenstein_outcome>  (914) 
too moved

>  <fragmenstein_mode>  (914) 
expansion

>  <fragmenstein_error>  (914) 


$$$$
C51145-P127
     RDKit          3D

 28 29  0  0  0  0  0  0  0  0999 V2000
  -10.4394    0.9365    8.7497 C   0  0  0  0  0  0  0  0  0  0  0  0
  -11.1927    0.1666    7.8433 C   0  0  0  0  0  0  0  0  0  0  0  0
  -10.4256   -0.4738    6.9566 N   0  0  0  0  0  0  0  0  0  0  0  0
   -9.1735   -0.1879    7.3572 N   0  0  0  0  0  0  0  0  0  0  0  0
   -8.0167   -0.8037    6.7048 C   0  0  0  0  0  0  0  0  0  0  0  0
   -8.0340   -2.3291    6.8500 C   0  0  0  0  0  0  0  0  0  0  0  0
   -6.8613   -3.0687    6.2096 C   0  0  0  0  0  0  0  0  0  0  0  0
   -5.5165   -2.3471    6.3014 C   0  0  0  0  0  0  0  0  0  0  0  0
   -5.3834   -1.0356    5.5153 C   0  0  0  0  0  0  0  0  0  0  0  0
   -6.5414   -0.7047    4.5716 C   0  0  0  0  0  0  0  0  0  0  0  0
   -7.8574   -0.3126    5.2592 C   0  0  0  0  0  0  0  0  0  0  0  0
   -9.1324    0.6977    8.4000 C   0  0  0  0  0  0  0  0  0  0  0  0
  -10.7975    1.5604    9.5550 H   0  0  0  0  0  0  0  0  0  0  0  0
  -12.2672    0.0546    7.7827 H   0  0  0  0  0  0  0  0  0  0  0  0
   -7.1682   -0.4266    7.2900 H   0  0  0  0  0  0  0  0  0  0  0  0
   -8.0530   -2.5718    7.9206 H   0  0  0  0  0  0  0  0  0  0  0  0
   -8.9647   -2.7448    6.4424 H   0  0  0  0  0  0  0  0  0  0  0  0
   -6.7736   -4.0472    6.6960 H   0  0  0  0  0  0  0  0  0  0  0  0
   -7.0929   -3.2923    5.1623 H   0  0  0  0  0  0  0  0  0  0  0  0
   -5.2699   -2.1565    7.3522 H   0  0  0  0  0  0  0  0  0  0  0  0
   -4.7396   -3.0293    5.9384 H   0  0  0  0  0  0  0  0  0  0  0  0
   -4.4631   -1.0923    4.9192 H   0  0  0  0  0  0  0  0  0  0  0  0
   -5.2191   -0.2011    6.2084 H   0  0  0  0  0  0  0  0  0  0  0  0
   -6.7155   -1.5443    3.8884 H   0  0  0  0  0  0  0  0  0  0  0  0
   -6.2374    0.1280    3.9241 H   0  0  0  0  0  0  0  0  0  0  0  0
   -8.6991   -0.6508    4.6413 H   0  0  0  0  0  0  0  0  0  0  0  0
   -7.9181    0.7846    5.2602 H   0  0  0  0  0  0  0  0  0  0  0  0
   -8.2002    1.0484    8.8171 H   0  0  0  0  0  0  0  0  0  0  0  0
  1  2  1  0
  2  3  2  0
  3  4  1  0
  4  5  1  0
  5  6  1  0
  6  7  1  0
  7  8  1  0
  8  9  1  0
  9 10  1  0
 10 11  1  0
  4 12  1  0
 12  1  2  0
 11  5  1  0
  1 13  1  0
  2 14  1  0
  5 15  1  0
  6 16  1  0
  6 17  1  0
  7 18  1  0
  7 19  1  0
  8 20  1  0
  8 21  1  0
  9 22  1  0
  9 23  1  0
 10 24  1  0
 10 25  1  0
 11 26  1  0
 11 27  1  0
 12 28  1  0
M  END
>  <Energy>  (915) 
22.694718207591784

>  <compound_id>  (915) 
51145

>  <target_id>  (915) 
1

>  <reference_id>  (915) 
127

>  <inspiration_ids>  (915) 
[127, 95]

>  <energy_score>  (915) 
-15.96531156377128

>  <distance_score>  (915) 
1.29997144449016

>  <path>  (915) 
/opt/xchem-fragalysis-2/maxwin/BulkDock/SCRATCH/511025/C51145-P127/C51145-P127.minimised.mol

>  <scratch_subdir>  (915) 
/opt/xchem-fragalysis-2/maxwin/BulkDock/SCRATCH/511025/C51145-P127

>  <fragmenstein_runtime>  (915) 
4.575557231903076

>  <fragmenstein_outcome>  (915) 
too moved

>  <fragmenstein_mode>  (915) 
expansion

>  <fragmenstein_error>  (915) 


$$$$
C51145-P95
     RDKit          3D

 28 29  0  0  0  0  0  0  0  0999 V2000
  -10.3027    1.0245    8.9113 C   0  0  0  0  0  0  0  0  0  0  0  0
  -11.1333    0.3531    7.9951 C   0  0  0  0  0  0  0  0  0  0  0  0
  -10.4375   -0.3283    7.0829 N   0  0  0  0  0  0  0  0  0  0  0  0
   -9.1599   -0.1654    7.4664 N   0  0  0  0  0  0  0  0  0  0  0  0
   -8.0719   -0.8415    6.7571 C   0  0  0  0  0  0  0  0  0  0  0  0
   -8.1665   -2.3641    6.8969 C   0  0  0  0  0  0  0  0  0  0  0  0
   -7.0853   -3.1671    6.1758 C   0  0  0  0  0  0  0  0  0  0  0  0
   -5.6893   -2.5442    6.1918 C   0  0  0  0  0  0  0  0  0  0  0  0
   -5.5181   -1.2067    5.4623 C   0  0  0  0  0  0  0  0  0  0  0  0
   -6.6833   -0.7925    4.5633 C   0  0  0  0  0  0  0  0  0  0  0  0
   -7.9529   -0.3511    5.3060 C   0  0  0  0  0  0  0  0  0  0  0  0
   -9.0261    0.6782    8.5372 C   0  0  0  0  0  0  0  0  0  0  0  0
  -10.5934    1.6553    9.7380 H   0  0  0  0  0  0  0  0  0  0  0  0
  -12.2138    0.3420    7.9427 H   0  0  0  0  0  0  0  0  0  0  0  0
   -7.1788   -0.5162    7.3049 H   0  0  0  0  0  0  0  0  0  0  0  0
   -8.1319   -2.6136    7.9651 H   0  0  0  0  0  0  0  0  0  0  0  0
   -9.1450   -2.7208    6.5495 H   0  0  0  0  0  0  0  0  0  0  0  0
   -7.0337   -4.1605    6.6384 H   0  0  0  0  0  0  0  0  0  0  0  0
   -7.3962   -3.3519    5.1411 H   0  0  0  0  0  0  0  0  0  0  0  0
   -5.3449   -2.4303    7.2256 H   0  0  0  0  0  0  0  0  0  0  0  0
   -4.9996   -3.2580    5.7289 H   0  0  0  0  0  0  0  0  0  0  0  0
   -4.6112   -1.2705    4.8466 H   0  0  0  0  0  0  0  0  0  0  0  0
   -5.3123   -0.4135    6.1892 H   0  0  0  0  0  0  0  0  0  0  0  0
   -6.9231   -1.6039    3.8661 H   0  0  0  0  0  0  0  0  0  0  0  0
   -6.3564    0.0411    3.9283 H   0  0  0  0  0  0  0  0  0  0  0  0
   -8.8324   -0.6529    4.7230 H   0  0  0  0  0  0  0  0  0  0  0  0
   -7.9694    0.7478    5.3117 H   0  0  0  0  0  0  0  0  0  0  0  0
   -8.0613    0.9299    8.9524 H   0  0  0  0  0  0  0  0  0  0  0  0
  1  2  1  0
  2  3  2  0
  3  4  1  0
  4  5  1  0
  5  6  1  0
  6  7  1  0
  7  8  1  0
  8  9  1  0
  9 10  1  0
 10 11  1  0
  4 12  1  0
 12  1  2  0
 11  5  1  0
  1 13  1  0
  2 14  1  0
  5 15  1  0
  6 16  1  0
  6 17  1  0
  7 18  1  0
  7 19  1  0
  8 20  1  0
  8 21  1  0
  9 22  1  0
  9 23  1  0
 10 24  1  0
 10 25  1  0
 11 26  1  0
 11 27  1  0
 12 28  1  0
M  END
>  <Energy>  (916) 
22.663994759552004

>  <compound_id>  (916) 
51145

>  <target_id>  (916) 
1

>  <reference_id>  (916) 
95

>  <inspiration_ids>  (916) 
[127, 95]

>  <energy_score>  (916) 
-15.996035011811358

>  <distance_score>  (916) 
1.3160590943240287

>  <path>  (916) 
/opt/xchem-fragalysis-2/maxwin/BulkDock/SCRATCH/511025/C51145-P95/C51145-P95.minimised.mol

>  <scratch_subdir>  (916) 
/opt/xchem-fragalysis-2/maxwin/BulkDock/SCRATCH/511025/C51145-P95

>  <fragmenstein_runtime>  (916) 
4.37079119682312

>  <fragmenstein_outcome>  (916) 
too moved

>  <fragmenstein_mode>  (916) 
expansion

>  <fragmenstein_error>  (916) 


$$$$
C51158-P127
     RDKit          3D

 42 43  0  0  0  0  0  0  0  0999 V2000
   -5.5690    0.2145    5.4924 C   0  0  0  0  0  0  0  0  0  0  0  0
   -5.5277   -1.1868    6.1334 C   0  0  0  0  0  0  0  0  0  0  0  0
   -4.5487   -2.0643    5.3603 C   0  0  0  0  0  0  0  0  0  0  0  0
   -5.0318   -0.9657    7.5569 C   0  0  0  0  0  0  0  0  0  0  0  0
   -5.6962   -0.7616    8.5583 O   0  0  0  0  0  0  0  0  0  0  0  0
   -3.6804   -0.9281    7.6706 O   0  0  0  0  0  0  0  0  0  0  0  0
   -6.8401   -1.8418    6.1362 N   0  0  0  0  0  0  0  0  0  0  0  0
   -7.1691   -3.0903    6.5952 C   0  0  0  0  0  0  0  0  0  0  0  0
   -8.5458   -3.1291    6.6081 C   0  0  0  0  0  0  0  0  0  0  0  0
   -8.9384   -1.8893    6.0677 C   0  0  0  0  0  0  0  0  0  0  0  0
  -10.1592   -1.3111    6.1832 N   0  0  0  0  0  0  0  0  0  0  0  0
  -10.6890    0.0400    5.6366 C   0  0  0  0  0  0  0  0  0  0  0  0
  -10.1800    0.8264    4.9378 O   0  0  0  0  0  0  0  0  0  0  0  0
  -12.0497    0.2796    6.2698 C   0  0  0  0  0  0  0  0  0  0  0  0
  -11.9795    0.9886    7.6498 C   0  0  0  0  0  0  0  0  0  0  0  0
  -11.7146    0.0554    8.8396 C   0  0  0  0  0  0  0  0  0  0  0  0
  -10.2771   -0.3621    9.1437 C   0  0  0  0  0  0  0  0  0  0  0  0
   -8.9863    0.7884    8.6275 S   0  0  0  0  0  0  0  0  0  0  0  0
   -9.9493    2.3022    8.6640 C   0  0  0  0  0  0  0  0  0  0  0  0
  -11.1130    2.2701    7.6789 C   0  0  0  0  0  0  0  0  0  0  0  0
   -7.8949   -1.2222    5.5870 N   0  0  0  0  0  0  0  0  0  0  0  0
   -4.5824    0.6912    5.5186 H   0  0  0  0  0  0  0  0  0  0  0  0
   -5.8841    0.1692    4.4434 H   0  0  0  0  0  0  0  0  0  0  0  0
   -6.2574    0.8824    6.0247 H   0  0  0  0  0  0  0  0  0  0  0  0
   -4.9488   -2.3525    4.3821 H   0  0  0  0  0  0  0  0  0  0  0  0
   -3.6162   -1.5195    5.1939 H   0  0  0  0  0  0  0  0  0  0  0  0
   -4.3043   -2.9795    5.9079 H   0  0  0  0  0  0  0  0  0  0  0  0
   -3.5208   -0.7498    8.6230 H   0  0  0  0  0  0  0  0  0  0  0  0
   -6.4291   -3.7882    6.9499 H   0  0  0  0  0  0  0  0  0  0  0  0
   -9.1641   -3.9008    7.0381 H   0  0  0  0  0  0  0  0  0  0  0  0
  -10.8928   -1.7790    6.6954 H   0  0  0  0  0  0  0  0  0  0  0  0
  -12.6150   -0.6567    6.3383 H   0  0  0  0  0  0  0  0  0  0  0  0
  -12.6118    0.9140    5.5714 H   0  0  0  0  0  0  0  0  0  0  0  0
  -13.0143    1.3342    7.8019 H   0  0  0  0  0  0  0  0  0  0  0  0
  -12.3459   -0.8361    8.7549 H   0  0  0  0  0  0  0  0  0  0  0  0
  -12.0902    0.5706    9.7364 H   0  0  0  0  0  0  0  0  0  0  0  0
  -10.0434   -1.3306    8.7063 H   0  0  0  0  0  0  0  0  0  0  0  0
  -10.1819   -0.5077   10.2246 H   0  0  0  0  0  0  0  0  0  0  0  0
  -10.3158    2.4639    9.6839 H   0  0  0  0  0  0  0  0  0  0  0  0
   -9.2928    3.1464    8.4287 H   0  0  0  0  0  0  0  0  0  0  0  0
  -10.7448    2.5154    6.6770 H   0  0  0  0  0  0  0  0  0  0  0  0
  -11.7691    3.1146    7.9327 H   0  0  0  0  0  0  0  0  0  0  0  0
  1  2  1  0
  2  3  1  0
  2  4  1  0
  4  5  2  0
  4  6  1  0
  2  7  1  0
  7  8  1  0
  8  9  2  0
  9 10  1  0
 10 11  1  0
 11 12  1  0
 12 13  2  0
 12 14  1  0
 14 15  1  0
 15 16  1  0
 16 17  1  0
 17 18  1  0
 18 19  1  0
 19 20  1  0
 10 21  2  0
 21  7  1  0
 20 15  1  0
  1 22  1  0
  1 23  1  0
  1 24  1  0
  3 25  1  0
  3 26  1  0
  3 27  1  0
  6 28  1  0
  8 29  1  0
  9 30  1  0
 11 31  1  0
 14 32  1  0
 14 33  1  0
 15 34  1  0
 16 35  1  0
 16 36  1  0
 17 37  1  0
 17 38  1  0
 19 39  1  0
 19 40  1  0
 20 41  1  0
 20 42  1  0
M  END
>  <Energy>  (917) 
9.8846593932324485

>  <compound_id>  (917) 
51158

>  <target_id>  (917) 
1

>  <reference_id>  (917) 
127

>  <inspiration_ids>  (917) 
[127, 95]

>  <energy_score>  (917) 
-16.97021947255172

>  <distance_score>  (917) 
2.113526179617203

>  <path>  (917) 
/opt/xchem-fragalysis-2/maxwin/BulkDock/SCRATCH/511025/C51158-P127/C51158-P127.minimised.mol

>  <scratch_subdir>  (917) 
/opt/xchem-fragalysis-2/maxwin/BulkDock/SCRATCH/511025/C51158-P127

>  <fragmenstein_runtime>  (917) 
6.905761480331421

>  <fragmenstein_outcome>  (917) 
too moved

>  <fragmenstein_mode>  (917) 
expansion

>  <fragmenstein_error>  (917) 


$$$$
C51158-P95
     RDKit          3D

 42 43  0  0  0  0  0  0  0  0999 V2000
   -5.9449   -0.2886    5.1883 C   0  0  0  0  0  0  0  0  0  0  0  0
   -5.8575   -1.2004    6.4295 C   0  0  0  0  0  0  0  0  0  0  0  0
   -4.5189   -1.9448    6.4581 C   0  0  0  0  0  0  0  0  0  0  0  0
   -5.9392   -0.2750    7.6588 C   0  0  0  0  0  0  0  0  0  0  0  0
   -5.4172    0.8360    7.7166 O   0  0  0  0  0  0  0  0  0  0  0  0
   -6.5806   -0.7536    8.7386 O   0  0  0  0  0  0  0  0  0  0  0  0
   -6.9603   -2.1800    6.3414 N   0  0  0  0  0  0  0  0  0  0  0  0
   -7.2206   -3.0100    5.2805 C   0  0  0  0  0  0  0  0  0  0  0  0
   -8.5895   -2.9537    5.1390 C   0  0  0  0  0  0  0  0  0  0  0  0
   -9.0423   -2.2603    6.2694 C   0  0  0  0  0  0  0  0  0  0  0  0
  -10.2596   -1.7140    6.4636 N   0  0  0  0  0  0  0  0  0  0  0  0
  -11.2410   -1.0596    5.4584 C   0  0  0  0  0  0  0  0  0  0  0  0
  -11.1804   -0.9617    4.2945 O   0  0  0  0  0  0  0  0  0  0  0  0
  -12.4491   -0.5326    6.2348 C   0  0  0  0  0  0  0  0  0  0  0  0
  -12.2534    0.4976    7.3667 C   0  0  0  0  0  0  0  0  0  0  0  0
  -12.2068   -0.1687    8.7496 C   0  0  0  0  0  0  0  0  0  0  0  0
  -11.2060    0.4337    9.7109 C   0  0  0  0  0  0  0  0  0  0  0  0
   -9.5313    0.3904    9.0556 S   0  0  0  0  0  0  0  0  0  0  0  0
   -9.7507    1.3043    7.5129 C   0  0  0  0  0  0  0  0  0  0  0  0
  -11.1970    1.5948    7.1351 C   0  0  0  0  0  0  0  0  0  0  0  0
   -8.0468   -2.0403    7.1299 N   0  0  0  0  0  0  0  0  0  0  0  0
   -5.1461    0.4526    5.1517 H   0  0  0  0  0  0  0  0  0  0  0  0
   -5.8778   -0.8598    4.2550 H   0  0  0  0  0  0  0  0  0  0  0  0
   -6.8949    0.2601    5.1697 H   0  0  0  0  0  0  0  0  0  0  0  0
   -4.5086   -2.7141    7.2352 H   0  0  0  0  0  0  0  0  0  0  0  0
   -4.3186   -2.4441    5.5039 H   0  0  0  0  0  0  0  0  0  0  0  0
   -3.6836   -1.2694    6.6638 H   0  0  0  0  0  0  0  0  0  0  0  0
   -7.3049   -1.3845    8.4757 H   0  0  0  0  0  0  0  0  0  0  0  0
   -6.4472   -3.3805    4.6231 H   0  0  0  0  0  0  0  0  0  0  0  0
   -9.1814   -3.2997    4.3049 H   0  0  0  0  0  0  0  0  0  0  0  0
  -10.5803   -1.5477    7.4038 H   0  0  0  0  0  0  0  0  0  0  0  0
  -13.0223   -1.3968    6.5929 H   0  0  0  0  0  0  0  0  0  0  0  0
  -13.0906   -0.0575    5.4780 H   0  0  0  0  0  0  0  0  0  0  0  0
  -13.2072    1.0503    7.3701 H   0  0  0  0  0  0  0  0  0  0  0  0
  -13.2034   -0.0848    9.2053 H   0  0  0  0  0  0  0  0  0  0  0  0
  -12.0436   -1.2473    8.6745 H   0  0  0  0  0  0  0  0  0  0  0  0
  -11.4715    1.4653    9.9652 H   0  0  0  0  0  0  0  0  0  0  0  0
  -11.2239   -0.1361   10.6450 H   0  0  0  0  0  0  0  0  0  0  0  0
   -9.2059    2.2508    7.6026 H   0  0  0  0  0  0  0  0  0  0  0  0
   -9.2529    0.7529    6.7112 H   0  0  0  0  0  0  0  0  0  0  0  0
  -11.2326    1.9208    6.0877 H   0  0  0  0  0  0  0  0  0  0  0  0
  -11.5113    2.4771    7.7119 H   0  0  0  0  0  0  0  0  0  0  0  0
  1  2  1  0
  2  3  1  0
  2  4  1  0
  4  5  2  0
  4  6  1  0
  2  7  1  0
  7  8  1  0
  8  9  2  0
  9 10  1  0
 10 11  1  0
 11 12  1  0
 12 13  2  0
 12 14  1  0
 14 15  1  0
 15 16  1  0
 16 17  1  0
 17 18  1  0
 18 19  1  0
 19 20  1  0
 10 21  2  0
 21  7  1  0
 20 15  1  0
  1 22  1  0
  1 23  1  0
  1 24  1  0
  3 25  1  0
  3 26  1  0
  3 27  1  0
  6 28  1  0
  8 29  1  0
  9 30  1  0
 11 31  1  0
 14 32  1  0
 14 33  1  0
 15 34  1  0
 16 35  1  0
 16 36  1  0
 17 37  1  0
 17 38  1  0
 19 39  1  0
 19 40  1  0
 20 41  1  0
 20 42  1  0
M  END
>  <Energy>  (918) 
11.176566192639564

>  <compound_id>  (918) 
51158

>  <target_id>  (918) 
1

>  <reference_id>  (918) 
95

>  <inspiration_ids>  (918) 
[127, 95]

>  <energy_score>  (918) 
-15.678312673147332

>  <distance_score>  (918) 
2.276316293089299

>  <path>  (918) 
/opt/xchem-fragalysis-2/maxwin/BulkDock/SCRATCH/511025/C51158-P95/C51158-P95.minimised.mol

>  <scratch_subdir>  (918) 
/opt/xchem-fragalysis-2/maxwin/BulkDock/SCRATCH/511025/C51158-P95

>  <fragmenstein_runtime>  (918) 
7.767772674560547

>  <fragmenstein_outcome>  (918) 
too moved

>  <fragmenstein_mode>  (918) 
expansion

>  <fragmenstein_error>  (918) 


$$$$
C51159-P127
     RDKit          3D

 39 40  0  0  0  0  0  0  0  0999 V2000
   -3.2879   -1.6972    7.5897 C   0  0  0  0  0  0  0  0  0  0  0  0
   -4.2629   -0.8542    7.2771 C   0  0  0  0  0  0  0  0  0  0  0  0
   -4.3648    0.6465    7.3024 C   0  0  0  0  0  0  0  0  0  0  0  0
   -5.8577    0.3409    7.6417 C   0  0  0  0  0  0  0  0  0  0  0  0
   -6.8146    1.4593    7.2449 C   0  0  0  0  0  0  0  0  0  0  0  0
   -7.7385    1.0506    6.1301 C   0  0  0  0  0  0  0  0  0  0  0  0
   -7.4683    1.1967    5.0023 O   0  0  0  0  0  0  0  0  0  0  0  0
   -8.9618    0.3566    6.7910 N   0  0  0  0  0  0  0  0  0  0  0  0
   -9.9855   -0.3361    6.2364 C   0  0  0  0  0  0  0  0  0  0  0  0
  -11.0687   -0.9321    6.9036 C   0  0  0  0  0  0  0  0  0  0  0  0
  -11.7760   -1.5839    5.9183 C   0  0  0  0  0  0  0  0  0  0  0  0
  -11.0720   -1.3927    4.7584 N   0  0  0  0  0  0  0  0  0  0  0  0
  -11.3370   -1.9429    3.4241 C   0  0  0  0  0  0  0  0  0  0  0  0
  -12.7676   -1.5847    2.9857 C   0  0  0  0  0  0  0  0  0  0  0  0
  -10.3581   -1.3612    2.3707 C   0  0  0  0  0  0  0  0  0  0  0  0
  -11.1628   -3.4586    3.3911 C   0  0  0  0  0  0  0  0  0  0  0  0
  -11.2943   -4.1402    2.3808 O   0  0  0  0  0  0  0  0  0  0  0  0
  -10.8470   -4.0583    4.5566 O   0  0  0  0  0  0  0  0  0  0  0  0
  -10.0245   -0.5709    4.9345 N   0  0  0  0  0  0  0  0  0  0  0  0
   -5.7105   -1.0013    6.8393 C   0  0  0  0  0  0  0  0  0  0  0  0
   -3.4399   -2.7671    7.5049 H   0  0  0  0  0  0  0  0  0  0  0  0
   -2.3309   -1.3224    7.9279 H   0  0  0  0  0  0  0  0  0  0  0  0
   -4.2040    1.1439    6.3421 H   0  0  0  0  0  0  0  0  0  0  0  0
   -3.8133    1.1795    8.0792 H   0  0  0  0  0  0  0  0  0  0  0  0
   -6.0213    0.1162    8.7076 H   0  0  0  0  0  0  0  0  0  0  0  0
   -6.2672    2.3490    6.9092 H   0  0  0  0  0  0  0  0  0  0  0  0
   -7.3968    1.7954    8.1104 H   0  0  0  0  0  0  0  0  0  0  0  0
   -8.8391    0.3384    7.7924 H   0  0  0  0  0  0  0  0  0  0  0  0
  -11.3022   -0.9214    7.9577 H   0  0  0  0  0  0  0  0  0  0  0  0
  -12.6620   -2.2041    5.9574 H   0  0  0  0  0  0  0  0  0  0  0  0
  -13.5206   -1.9925    3.6667 H   0  0  0  0  0  0  0  0  0  0  0  0
  -12.9914   -1.9799    1.9880 H   0  0  0  0  0  0  0  0  0  0  0  0
  -12.9109   -0.4981    2.9563 H   0  0  0  0  0  0  0  0  0  0  0  0
   -9.3194   -1.6343    2.5940 H   0  0  0  0  0  0  0  0  0  0  0  0
  -10.5786   -1.7495    1.3690 H   0  0  0  0  0  0  0  0  0  0  0  0
  -10.4217   -0.2679    2.3179 H   0  0  0  0  0  0  0  0  0  0  0  0
  -10.9705   -5.0271    4.4149 H   0  0  0  0  0  0  0  0  0  0  0  0
   -6.2828   -1.8362    7.2532 H   0  0  0  0  0  0  0  0  0  0  0  0
   -5.8779   -0.9482    5.7590 H   0  0  0  0  0  0  0  0  0  0  0  0
  1  2  2  0
  2  3  1  0
  3  4  1  0
  4  5  1  0
  5  6  1  0
  6  7  2  0
  6  8  1  0
  8  9  1  0
  9 10  1  0
 10 11  2  0
 11 12  1  0
 12 13  1  0
 13 14  1  0
 13 15  1  0
 13 16  1  0
 16 17  2  0
 16 18  1  0
 12 19  1  0
  4 20  1  0
 20  2  1  0
 19  9  2  0
  1 21  1  0
  1 22  1  0
  3 23  1  0
  3 24  1  0
  4 25  1  0
  5 26  1  0
  5 27  1  0
  8 28  1  0
 10 29  1  0
 11 30  1  0
 14 31  1  0
 14 32  1  0
 14 33  1  0
 15 34  1  0
 15 35  1  0
 15 36  1  0
 18 37  1  0
 20 38  1  0
 20 39  1  0
M  END
>  <Energy>  (919) 
3.0129648189022857

>  <compound_id>  (919) 
51159

>  <target_id>  (919) 
1

>  <reference_id>  (919) 
127

>  <inspiration_ids>  (919) 
[127, 95]

>  <energy_score>  (919) 
-31.702594595768716

>  <distance_score>  (919) 
2.895179370915378

>  <path>  (919) 
/opt/xchem-fragalysis-2/maxwin/BulkDock/SCRATCH/511025/C51159-P127/C51159-P127.minimised.mol

>  <scratch_subdir>  (919) 
/opt/xchem-fragalysis-2/maxwin/BulkDock/SCRATCH/511025/C51159-P127

>  <fragmenstein_runtime>  (919) 
51.71310806274414

>  <fragmenstein_outcome>  (919) 
too moved

>  <fragmenstein_mode>  (919) 
expansion

>  <fragmenstein_error>  (919) 


$$$$
C51159-P95
     RDKit          3D

 39 40  0  0  0  0  0  0  0  0999 V2000
   -3.4479   -1.8776    7.4811 C   0  0  0  0  0  0  0  0  0  0  0  0
   -4.5790   -1.1910    7.4932 C   0  0  0  0  0  0  0  0  0  0  0  0
   -5.0715   -0.1339    8.4197 C   0  0  0  0  0  0  0  0  0  0  0  0
   -6.4742   -0.5890    7.9682 C   0  0  0  0  0  0  0  0  0  0  0  0
   -7.4631    0.5532    7.7793 C   0  0  0  0  0  0  0  0  0  0  0  0
   -8.5716    0.1807    6.8194 C   0  0  0  0  0  0  0  0  0  0  0  0
   -8.7411   -0.9058    6.4276 O   0  0  0  0  0  0  0  0  0  0  0  0
   -9.2821    1.5074    6.4433 N   0  0  0  0  0  0  0  0  0  0  0  0
  -10.2189    1.7655    5.5019 C   0  0  0  0  0  0  0  0  0  0  0  0
  -10.7619    3.0141    5.1510 C   0  0  0  0  0  0  0  0  0  0  0  0
  -11.6030    2.7475    4.0925 C   0  0  0  0  0  0  0  0  0  0  0  0
  -11.5189    1.3989    3.8722 N   0  0  0  0  0  0  0  0  0  0  0  0
  -12.1815    0.5665    2.8614 C   0  0  0  0  0  0  0  0  0  0  0  0
  -12.7698    1.3892    1.7016 C   0  0  0  0  0  0  0  0  0  0  0  0
  -11.1444   -0.4221    2.2716 C   0  0  0  0  0  0  0  0  0  0  0  0
  -13.3487   -0.1247    3.5625 C   0  0  0  0  0  0  0  0  0  0  0  0
  -14.1539    0.4136    4.3121 O   0  0  0  0  0  0  0  0  0  0  0  0
  -13.5083   -1.4268    3.2556 O   0  0  0  0  0  0  0  0  0  0  0  0
  -10.6912    0.7923    4.7388 N   0  0  0  0  0  0  0  0  0  0  0  0
   -5.8534   -1.2369    6.6937 C   0  0  0  0  0  0  0  0  0  0  0  0
   -3.3608   -2.7061    6.8015 H   0  0  0  0  0  0  0  0  0  0  0  0
   -2.6740   -1.6575    8.2022 H   0  0  0  0  0  0  0  0  0  0  0  0
   -4.8281    0.8978    8.1831 H   0  0  0  0  0  0  0  0  0  0  0  0
   -4.8406   -0.2949    9.4686 H   0  0  0  0  0  0  0  0  0  0  0  0
   -6.9119   -1.3496    8.6285 H   0  0  0  0  0  0  0  0  0  0  0  0
   -6.9407    1.4280    7.3729 H   0  0  0  0  0  0  0  0  0  0  0  0
   -7.9064    0.8347    8.7407 H   0  0  0  0  0  0  0  0  0  0  0  0
   -8.8313    2.2762    6.9138 H   0  0  0  0  0  0  0  0  0  0  0  0
  -10.5690    3.9795    5.5939 H   0  0  0  0  0  0  0  0  0  0  0  0
  -12.2376    3.3943    3.5045 H   0  0  0  0  0  0  0  0  0  0  0  0
  -13.5544    2.0743    2.0438 H   0  0  0  0  0  0  0  0  0  0  0  0
  -13.2301    0.7353    0.9512 H   0  0  0  0  0  0  0  0  0  0  0  0
  -11.9977    1.9850    1.2015 H   0  0  0  0  0  0  0  0  0  0  0  0
  -10.7871   -1.1389    3.0194 H   0  0  0  0  0  0  0  0  0  0  0  0
  -11.5780   -1.0017    1.4496 H   0  0  0  0  0  0  0  0  0  0  0  0
  -10.2719    0.1108    1.8753 H   0  0  0  0  0  0  0  0  0  0  0  0
  -14.0417   -1.7715    4.0087 H   0  0  0  0  0  0  0  0  0  0  0  0
   -6.2520   -2.2261    6.4488 H   0  0  0  0  0  0  0  0  0  0  0  0
   -5.8630   -0.6129    5.7936 H   0  0  0  0  0  0  0  0  0  0  0  0
  1  2  2  0
  2  3  1  0
  3  4  1  0
  4  5  1  0
  5  6  1  0
  6  7  2  0
  6  8  1  0
  8  9  1  0
  9 10  1  0
 10 11  2  0
 11 12  1  0
 12 13  1  0
 13 14  1  0
 13 15  1  0
 13 16  1  0
 16 17  2  0
 16 18  1  0
 12 19  1  0
  4 20  1  0
 20  2  1  0
 19  9  2  0
  1 21  1  0
  1 22  1  0
  3 23  1  0
  3 24  1  0
  4 25  1  0
  5 26  1  0
  5 27  1  0
  8 28  1  0
 10 29  1  0
 11 30  1  0
 14 31  1  0
 14 32  1  0
 14 33  1  0
 15 34  1  0
 15 35  1  0
 15 36  1  0
 18 37  1  0
 20 38  1  0
 20 39  1  0
M  END
>  <Energy>  (920) 
-3.3459685936193413

>  <compound_id>  (920) 
51159

>  <target_id>  (920) 
1

>  <reference_id>  (920) 
95

>  <inspiration_ids>  (920) 
[127, 95]

>  <energy_score>  (920) 
-38.061528008291106

>  <distance_score>  (920) 
3.6074231191792823

>  <path>  (920) 
/opt/xchem-fragalysis-2/maxwin/BulkDock/SCRATCH/511025/C51159-P95/C51159-P95.minimised.mol

>  <scratch_subdir>  (920) 
/opt/xchem-fragalysis-2/maxwin/BulkDock/SCRATCH/511025/C51159-P95

>  <fragmenstein_runtime>  (920) 
48.19633388519287

>  <fragmenstein_outcome>  (920) 
too moved

>  <fragmenstein_mode>  (920) 
expansion

>  <fragmenstein_error>  (920) 


$$$$
C51160-P127
     RDKit          3D

 40 41  0  0  0  0  0  0  0  0999 V2000
   -5.3468    0.2058    5.5142 C   0  0  0  0  0  0  0  0  0  0  0  0
   -5.4825   -1.1496    6.2406 C   0  0  0  0  0  0  0  0  0  0  0  0
   -4.5125   -2.1375    5.5968 C   0  0  0  0  0  0  0  0  0  0  0  0
   -5.1077   -0.8688    7.6898 C   0  0  0  0  0  0  0  0  0  0  0  0
   -5.8388   -0.4694    8.5817 O   0  0  0  0  0  0  0  0  0  0  0  0
   -3.7839   -1.0049    7.9494 O   0  0  0  0  0  0  0  0  0  0  0  0
   -6.8458   -1.6820    6.1611 N   0  0  0  0  0  0  0  0  0  0  0  0
   -7.2861   -2.9514    6.4289 C   0  0  0  0  0  0  0  0  0  0  0  0
   -8.6562   -2.9173    6.2826 C   0  0  0  0  0  0  0  0  0  0  0  0
   -8.9358   -1.5927    5.9090 C   0  0  0  0  0  0  0  0  0  0  0  0
  -10.1183   -0.9451    5.8600 N   0  0  0  0  0  0  0  0  0  0  0  0
  -11.5424   -1.4359    6.1840 C   0  0  0  0  0  0  0  0  0  0  0  0
  -11.9285   -2.4965    6.4696 O   0  0  0  0  0  0  0  0  0  0  0  0
  -12.4167   -0.1946    6.1680 C   0  0  0  0  0  0  0  0  0  0  0  0
  -12.1882    0.7768    7.3549 C   0  0  0  0  0  0  0  0  0  0  0  0
  -12.0173    0.1370    8.7364 C   0  0  0  0  0  0  0  0  0  0  0  0
  -10.3511   -0.4172    9.1789 S   0  0  0  0  0  0  0  0  0  0  0  0
   -9.4751    1.1440    9.1076 C   0  0  0  0  0  0  0  0  0  0  0  0
   -9.4477    1.7475    7.7237 C   0  0  0  0  0  0  0  0  0  0  0  0
  -11.0599    2.2074    6.9934 S   0  0  0  0  0  0  0  0  0  0  0  0
   -7.8296   -0.8797    5.7230 N   0  0  0  0  0  0  0  0  0  0  0  0
   -4.3192    0.5816    5.5739 H   0  0  0  0  0  0  0  0  0  0  0  0
   -5.6077    0.1212    4.4528 H   0  0  0  0  0  0  0  0  0  0  0  0
   -5.9869    0.9765    5.9614 H   0  0  0  0  0  0  0  0  0  0  0  0
   -4.3406   -3.0118    6.2324 H   0  0  0  0  0  0  0  0  0  0  0  0
   -4.8701   -2.4872    4.6217 H   0  0  0  0  0  0  0  0  0  0  0  0
   -3.5495   -1.6481    5.4370 H   0  0  0  0  0  0  0  0  0  0  0  0
   -3.6782   -0.7713    8.8971 H   0  0  0  0  0  0  0  0  0  0  0  0
   -6.6261   -3.7476    6.7389 H   0  0  0  0  0  0  0  0  0  0  0  0
   -9.3611   -3.7099    6.4933 H   0  0  0  0  0  0  0  0  0  0  0  0
  -10.1274    0.0550    5.7340 H   0  0  0  0  0  0  0  0  0  0  0  0
  -12.3221    0.3118    5.2000 H   0  0  0  0  0  0  0  0  0  0  0  0
  -13.4537   -0.5558    6.2125 H   0  0  0  0  0  0  0  0  0  0  0  0
  -13.1518    1.3027    7.4194 H   0  0  0  0  0  0  0  0  0  0  0  0
  -12.6964   -0.7174    8.8307 H   0  0  0  0  0  0  0  0  0  0  0  0
  -12.3318    0.8495    9.5089 H   0  0  0  0  0  0  0  0  0  0  0  0
   -9.9053    1.8395    9.8362 H   0  0  0  0  0  0  0  0  0  0  0  0
   -8.4476    0.9429    9.4217 H   0  0  0  0  0  0  0  0  0  0  0  0
   -8.8918    1.1221    7.0277 H   0  0  0  0  0  0  0  0  0  0  0  0
   -8.8750    2.6812    7.7754 H   0  0  0  0  0  0  0  0  0  0  0  0
  1  2  1  0
  2  3  1  0
  2  4  1  0
  4  5  2  0
  4  6  1  0
  2  7  1  0
  7  8  1  0
  8  9  2  0
  9 10  1  0
 10 11  1  0
 11 12  1  0
 12 13  2  0
 12 14  1  0
 14 15  1  0
 15 16  1  0
 16 17  1  0
 17 18  1  0
 18 19  1  0
 19 20  1  0
 10 21  2  0
 21  7  1  0
 20 15  1  0
  1 22  1  0
  1 23  1  0
  1 24  1  0
  3 25  1  0
  3 26  1  0
  3 27  1  0
  6 28  1  0
  8 29  1  0
  9 30  1  0
 11 31  1  0
 14 32  1  0
 14 33  1  0
 15 34  1  0
 16 35  1  0
 16 36  1  0
 18 37  1  0
 18 38  1  0
 19 39  1  0
 19 40  1  0
M  END
>  <Energy>  (921) 
10.111005581985758

>  <compound_id>  (921) 
51160

>  <target_id>  (921) 
1

>  <reference_id>  (921) 
127

>  <inspiration_ids>  (921) 
[127, 95]

>  <energy_score>  (921) 
-67.34835247981243

>  <distance_score>  (921) 
2.2684548782031957

>  <path>  (921) 
/opt/xchem-fragalysis-2/maxwin/BulkDock/SCRATCH/511025/C51160-P127/C51160-P127.minimised.mol

>  <scratch_subdir>  (921) 
/opt/xchem-fragalysis-2/maxwin/BulkDock/SCRATCH/511025/C51160-P127

>  <fragmenstein_runtime>  (921) 
6.971530914306641

>  <fragmenstein_outcome>  (921) 
too moved

>  <fragmenstein_mode>  (921) 
expansion

>  <fragmenstein_error>  (921) 


$$$$
C51160-P95
     RDKit          3D

 40 41  0  0  0  0  0  0  0  0999 V2000
   -5.7752   -0.4747    5.0673 C   0  0  0  0  0  0  0  0  0  0  0  0
   -5.6972   -1.3266    6.3494 C   0  0  0  0  0  0  0  0  0  0  0  0
   -4.4385   -2.1988    6.2966 C   0  0  0  0  0  0  0  0  0  0  0  0
   -5.5882   -0.4121    7.5642 C   0  0  0  0  0  0  0  0  0  0  0  0
   -5.0379   -0.6660    8.6250 O   0  0  0  0  0  0  0  0  0  0  0  0
   -6.1575    0.8091    7.4237 O   0  0  0  0  0  0  0  0  0  0  0  0
   -6.9019   -2.1671    6.4312 N   0  0  0  0  0  0  0  0  0  0  0  0
   -7.2892   -3.0931    5.4939 C   0  0  0  0  0  0  0  0  0  0  0  0
   -8.6627   -3.0371    5.4847 C   0  0  0  0  0  0  0  0  0  0  0  0
   -8.9947   -2.2039    6.5599 C   0  0  0  0  0  0  0  0  0  0  0  0
  -10.2119   -1.6951    6.8402 N   0  0  0  0  0  0  0  0  0  0  0  0
  -11.2743   -1.0576    5.9101 C   0  0  0  0  0  0  0  0  0  0  0  0
  -11.2926   -0.9444    4.7468 O   0  0  0  0  0  0  0  0  0  0  0  0
  -12.4229   -0.5702    6.7811 C   0  0  0  0  0  0  0  0  0  0  0  0
  -12.2374    0.6856    7.6549 C   0  0  0  0  0  0  0  0  0  0  0  0
  -12.0394    0.3930    9.1417 C   0  0  0  0  0  0  0  0  0  0  0  0
  -10.4349   -0.3033    9.5672 S   0  0  0  0  0  0  0  0  0  0  0  0
   -9.3592    1.0543    9.0387 C   0  0  0  0  0  0  0  0  0  0  0  0
   -9.4812    1.4388    7.5739 C   0  0  0  0  0  0  0  0  0  0  0  0
  -11.1290    2.0299    7.0636 S   0  0  0  0  0  0  0  0  0  0  0  0
   -7.9174   -1.8241    7.2483 N   0  0  0  0  0  0  0  0  0  0  0  0
   -5.7832   -1.1026    4.1682 H   0  0  0  0  0  0  0  0  0  0  0  0
   -6.6881    0.1326    5.0372 H   0  0  0  0  0  0  0  0  0  0  0  0
   -4.9240    0.2022    4.9700 H   0  0  0  0  0  0  0  0  0  0  0  0
   -4.3823   -2.7676    5.3624 H   0  0  0  0  0  0  0  0  0  0  0  0
   -3.5336   -1.5873    6.3719 H   0  0  0  0  0  0  0  0  0  0  0  0
   -4.4125   -2.9213    7.1183 H   0  0  0  0  0  0  0  0  0  0  0  0
   -6.1826    1.1362    8.3455 H   0  0  0  0  0  0  0  0  0  0  0  0
   -6.5903   -3.5764    4.8269 H   0  0  0  0  0  0  0  0  0  0  0  0
   -9.3424   -3.5042    4.7870 H   0  0  0  0  0  0  0  0  0  0  0  0
  -10.4771   -1.5479    7.8087 H   0  0  0  0  0  0  0  0  0  0  0  0
  -13.2483   -0.3675    6.0822 H   0  0  0  0  0  0  0  0  0  0  0  0
  -12.7797   -1.4167    7.3825 H   0  0  0  0  0  0  0  0  0  0  0  0
  -13.2223    1.1731    7.6188 H   0  0  0  0  0  0  0  0  0  0  0  0
  -12.8032   -0.3165    9.4807 H   0  0  0  0  0  0  0  0  0  0  0  0
  -12.1907    1.3010    9.7381 H   0  0  0  0  0  0  0  0  0  0  0  0
   -9.5567    1.9206    9.6802 H   0  0  0  0  0  0  0  0  0  0  0  0
   -8.3297    0.7461    9.2458 H   0  0  0  0  0  0  0  0  0  0  0  0
   -9.1607    0.6414    6.9054 H   0  0  0  0  0  0  0  0  0  0  0  0
   -8.7909    2.2686    7.3827 H   0  0  0  0  0  0  0  0  0  0  0  0
  1  2  1  0
  2  3  1  0
  2  4  1  0
  4  5  2  0
  4  6  1  0
  2  7  1  0
  7  8  1  0
  8  9  2  0
  9 10  1  0
 10 11  1  0
 11 12  1  0
 12 13  2  0
 12 14  1  0
 14 15  1  0
 15 16  1  0
 16 17  1  0
 17 18  1  0
 18 19  1  0
 19 20  1  0
 10 21  2  0
 21  7  1  0
 20 15  1  0
  1 22  1  0
  1 23  1  0
  1 24  1  0
  3 25  1  0
  3 26  1  0
  3 27  1  0
  6 28  1  0
  8 29  1  0
  9 30  1  0
 11 31  1  0
 14 32  1  0
 14 33  1  0
 15 34  1  0
 16 35  1  0
 16 36  1  0
 18 37  1  0
 18 38  1  0
 19 39  1  0
 19 40  1  0
M  END
>  <Energy>  (922) 
26.823747197322987

>  <compound_id>  (922) 
51160

>  <target_id>  (922) 
1

>  <reference_id>  (922) 
95

>  <inspiration_ids>  (922) 
[127, 95]

>  <energy_score>  (922) 
-50.63561086447618

>  <distance_score>  (922) 
2.360033422447156

>  <path>  (922) 
/opt/xchem-fragalysis-2/maxwin/BulkDock/SCRATCH/511025/C51160-P95/C51160-P95.minimised.mol

>  <scratch_subdir>  (922) 
/opt/xchem-fragalysis-2/maxwin/BulkDock/SCRATCH/511025/C51160-P95

>  <fragmenstein_runtime>  (922) 
7.968997955322266

>  <fragmenstein_outcome>  (922) 
too moved

>  <fragmenstein_mode>  (922) 
expansion

>  <fragmenstein_error>  (922) 


$$$$
C51165-P127
     RDKit          3D

 45 46  0  0  0  0  0  0  0  0999 V2000
  -14.4774    1.5470   12.2472 C   0  0  0  0  0  0  0  0  0  0  0  0
  -15.0848    1.4230   10.8325 C   0  0  0  0  0  0  0  0  0  0  0  0
  -15.8828    2.7070   10.5296 C   0  0  0  0  0  0  0  0  0  0  0  0
  -16.0846    0.2617   10.7820 C   0  0  0  0  0  0  0  0  0  0  0  0
  -16.9624    0.0914    9.9464 O   0  0  0  0  0  0  0  0  0  0  0  0
  -15.9785   -0.6233   11.7977 O   0  0  0  0  0  0  0  0  0  0  0  0
  -14.0078    1.2722    9.8357 N   0  0  0  0  0  0  0  0  0  0  0  0
  -13.8713    0.3393    8.8464 C   0  0  0  0  0  0  0  0  0  0  0  0
  -12.6946    0.6304    8.2015 C   0  0  0  0  0  0  0  0  0  0  0  0
  -12.1389   -0.0537    7.1653 N   0  0  0  0  0  0  0  0  0  0  0  0
  -12.6238   -1.3286    6.4241 C   0  0  0  0  0  0  0  0  0  0  0  0
  -13.5328   -2.0293    6.6393 O   0  0  0  0  0  0  0  0  0  0  0  0
  -11.6275   -1.5362    5.2672 C   0  0  0  0  0  0  0  0  0  0  0  0
  -10.3487   -0.9044    5.3723 O   0  0  0  0  0  0  0  0  0  0  0  0
   -9.4073   -1.4986    6.2715 C   0  0  0  0  0  0  0  0  0  0  0  0
   -9.2669   -3.0153    6.1063 C   0  0  0  0  0  0  0  0  0  0  0  0
   -7.9538   -3.4923    6.6994 C   0  0  0  0  0  0  0  0  0  0  0  0
   -6.7685   -2.9149    5.9241 C   0  0  0  0  0  0  0  0  0  0  0  0
   -7.0857   -1.5823    5.2297 C   0  0  0  0  0  0  0  0  0  0  0  0
   -8.0753   -0.7570    6.0466 C   0  0  0  0  0  0  0  0  0  0  0  0
  -12.1884    1.7637    8.8509 C   0  0  0  0  0  0  0  0  0  0  0  0
  -12.9910    2.1771    9.8326 N   0  0  0  0  0  0  0  0  0  0  0  0
  -13.8285    0.6935   12.4780 H   0  0  0  0  0  0  0  0  0  0  0  0
  -15.2592    1.5896   13.0147 H   0  0  0  0  0  0  0  0  0  0  0  0
  -13.8697    2.4534   12.3522 H   0  0  0  0  0  0  0  0  0  0  0  0
  -16.7328    2.8149   11.2136 H   0  0  0  0  0  0  0  0  0  0  0  0
  -16.2830    2.6958    9.5084 H   0  0  0  0  0  0  0  0  0  0  0  0
  -15.2609    3.6044   10.6253 H   0  0  0  0  0  0  0  0  0  0  0  0
  -16.6872   -1.2909   11.6576 H   0  0  0  0  0  0  0  0  0  0  0  0
  -14.5881   -0.4536    8.6770 H   0  0  0  0  0  0  0  0  0  0  0  0
  -11.2634    0.2630    6.7589 H   0  0  0  0  0  0  0  0  0  0  0  0
  -11.5291   -2.6072    5.0697 H   0  0  0  0  0  0  0  0  0  0  0  0
  -12.1092   -1.1009    4.3839 H   0  0  0  0  0  0  0  0  0  0  0  0
   -9.7383   -1.2828    7.2944 H   0  0  0  0  0  0  0  0  0  0  0  0
   -9.3315   -3.3024    5.0494 H   0  0  0  0  0  0  0  0  0  0  0  0
  -10.1003   -3.5131    6.6095 H   0  0  0  0  0  0  0  0  0  0  0  0
   -7.8992   -4.5847    6.7086 H   0  0  0  0  0  0  0  0  0  0  0  0
   -7.8981   -3.1742    7.7471 H   0  0  0  0  0  0  0  0  0  0  0  0
   -6.4349   -3.6315    5.1643 H   0  0  0  0  0  0  0  0  0  0  0  0
   -5.9254   -2.7847    6.6133 H   0  0  0  0  0  0  0  0  0  0  0  0
   -7.5060   -1.7760    4.2349 H   0  0  0  0  0  0  0  0  0  0  0  0
   -6.1576   -1.0207    5.0744 H   0  0  0  0  0  0  0  0  0  0  0  0
   -7.6188   -0.5468    7.0228 H   0  0  0  0  0  0  0  0  0  0  0  0
   -8.2391    0.2111    5.5588 H   0  0  0  0  0  0  0  0  0  0  0  0
  -11.2766    2.3112    8.6547 H   0  0  0  0  0  0  0  0  0  0  0  0
  1  2  1  0
  2  3  1  0
  2  4  1  0
  4  5  2  0
  4  6  1  0
  2  7  1  0
  7  8  1  0
  8  9  2  0
  9 10  1  0
 10 11  1  0
 11 12  2  0
 11 13  1  0
 13 14  1  0
 14 15  1  0
 15 16  1  0
 16 17  1  0
 17 18  1  0
 18 19  1  0
 19 20  1  0
  9 21  1  0
 21 22  2  0
 22  7  1  0
 20 15  1  0
  1 23  1  0
  1 24  1  0
  1 25  1  0
  3 26  1  0
  3 27  1  0
  3 28  1  0
  6 29  1  0
  8 30  1  0
 10 31  1  0
 13 32  1  0
 13 33  1  0
 15 34  1  0
 16 35  1  0
 16 36  1  0
 17 37  1  0
 17 38  1  0
 18 39  1  0
 18 40  1  0
 19 41  1  0
 19 42  1  0
 20 43  1  0
 20 44  1  0
 21 45  1  0
M  END
>  <Energy>  (923) 
53.185696143209519

>  <compound_id>  (923) 
51165

>  <target_id>  (923) 
1

>  <reference_id>  (923) 
127

>  <inspiration_ids>  (923) 
[127, 95]

>  <energy_score>  (923) 
-62.535193858312425

>  <distance_score>  (923) 
2.29833889074288

>  <path>  (923) 
/opt/xchem-fragalysis-2/maxwin/BulkDock/SCRATCH/511025/C51165-P127/C51165-P127.minimised.mol

>  <scratch_subdir>  (923) 
/opt/xchem-fragalysis-2/maxwin/BulkDock/SCRATCH/511025/C51165-P127

>  <fragmenstein_runtime>  (923) 
266.6712498664856

>  <fragmenstein_outcome>  (923) 
too moved

>  <fragmenstein_mode>  (923) 
expansion

>  <fragmenstein_error>  (923) 


$$$$
C51165-P95
     RDKit          3D

 45 46  0  0  0  0  0  0  0  0999 V2000
  -14.7747    1.8952   11.9692 C   0  0  0  0  0  0  0  0  0  0  0  0
  -15.4168    1.3918   10.6592 C   0  0  0  0  0  0  0  0  0  0  0  0
  -16.5674    2.3672   10.3154 C   0  0  0  0  0  0  0  0  0  0  0  0
  -16.0600    0.0150   10.8235 C   0  0  0  0  0  0  0  0  0  0  0  0
  -16.8684   -0.4999   10.0628 O   0  0  0  0  0  0  0  0  0  0  0  0
  -15.7144   -0.6398   11.9548 O   0  0  0  0  0  0  0  0  0  0  0  0
  -14.3959    1.3323    9.6015 N   0  0  0  0  0  0  0  0  0  0  0  0
  -13.2232    0.6270    9.6404 C   0  0  0  0  0  0  0  0  0  0  0  0
  -12.4763    1.0665    8.5782 C   0  0  0  0  0  0  0  0  0  0  0  0
  -11.1817    0.7614    8.3062 N   0  0  0  0  0  0  0  0  0  0  0  0
  -10.1190    0.0330    9.1647 C   0  0  0  0  0  0  0  0  0  0  0  0
  -10.2136   -0.4846   10.2056 O   0  0  0  0  0  0  0  0  0  0  0  0
   -8.8021    0.2097    8.4031 C   0  0  0  0  0  0  0  0  0  0  0  0
   -8.9701    0.1196    6.9884 O   0  0  0  0  0  0  0  0  0  0  0  0
   -8.3043   -1.0162    6.4432 C   0  0  0  0  0  0  0  0  0  0  0  0
   -8.9958   -2.3254    6.8447 C   0  0  0  0  0  0  0  0  0  0  0  0
   -8.5329   -3.5147    6.0093 C   0  0  0  0  0  0  0  0  0  0  0  0
   -7.2544   -3.2108    5.2313 C   0  0  0  0  0  0  0  0  0  0  0  0
   -7.4312   -2.0013    4.3009 C   0  0  0  0  0  0  0  0  0  0  0  0
   -8.2665   -0.8846    4.9243 C   0  0  0  0  0  0  0  0  0  0  0  0
  -13.3038    1.9566    7.8911 C   0  0  0  0  0  0  0  0  0  0  0  0
  -14.4581    2.1596    8.5287 N   0  0  0  0  0  0  0  0  0  0  0  0
  -13.9741    1.2332   12.3192 H   0  0  0  0  0  0  0  0  0  0  0  0
  -15.5152    1.9584   12.7754 H   0  0  0  0  0  0  0  0  0  0  0  0
  -14.3363    2.8915   11.8364 H   0  0  0  0  0  0  0  0  0  0  0  0
  -17.3387    2.3554   11.0951 H   0  0  0  0  0  0  0  0  0  0  0  0
  -17.0595    2.0981    9.3730 H   0  0  0  0  0  0  0  0  0  0  0  0
  -16.2073    3.3983   10.2196 H   0  0  0  0  0  0  0  0  0  0  0  0
  -16.2337   -1.4755   11.9455 H   0  0  0  0  0  0  0  0  0  0  0  0
  -12.9895   -0.0611   10.4414 H   0  0  0  0  0  0  0  0  0  0  0  0
  -10.7365    1.1677    7.4871 H   0  0  0  0  0  0  0  0  0  0  0  0
   -8.4377    1.2187    8.6263 H   0  0  0  0  0  0  0  0  0  0  0  0
   -8.0593   -0.4962    8.7866 H   0  0  0  0  0  0  0  0  0  0  0  0
   -7.2674   -1.0070    6.8071 H   0  0  0  0  0  0  0  0  0  0  0  0
  -10.0863   -2.2228    6.7752 H   0  0  0  0  0  0  0  0  0  0  0  0
   -8.7950   -2.5328    7.9027 H   0  0  0  0  0  0  0  0  0  0  0  0
   -9.3295   -3.7778    5.3025 H   0  0  0  0  0  0  0  0  0  0  0  0
   -8.3848   -4.3865    6.6567 H   0  0  0  0  0  0  0  0  0  0  0  0
   -6.9402   -4.0750    4.6389 H   0  0  0  0  0  0  0  0  0  0  0  0
   -6.4365   -3.0176    5.9372 H   0  0  0  0  0  0  0  0  0  0  0  0
   -7.9042   -2.3196    3.3640 H   0  0  0  0  0  0  0  0  0  0  0  0
   -6.4394   -1.6189    4.0314 H   0  0  0  0  0  0  0  0  0  0  0  0
   -7.8704    0.0944    4.6287 H   0  0  0  0  0  0  0  0  0  0  0  0
   -9.2901   -0.9158    4.5282 H   0  0  0  0  0  0  0  0  0  0  0  0
  -13.1044    2.5111    6.9844 H   0  0  0  0  0  0  0  0  0  0  0  0
  1  2  1  0
  2  3  1  0
  2  4  1  0
  4  5  2  0
  4  6  1  0
  2  7  1  0
  7  8  1  0
  8  9  2  0
  9 10  1  0
 10 11  1  0
 11 12  2  0
 11 13  1  0
 13 14  1  0
 14 15  1  0
 15 16  1  0
 16 17  1  0
 17 18  1  0
 18 19  1  0
 19 20  1  0
  9 21  1  0
 21 22  2  0
 22  7  1  0
 20 15  1  0
  1 23  1  0
  1 24  1  0
  1 25  1  0
  3 26  1  0
  3 27  1  0
  3 28  1  0
  6 29  1  0
  8 30  1  0
 10 31  1  0
 13 32  1  0
 13 33  1  0
 15 34  1  0
 16 35  1  0
 16 36  1  0
 17 37  1  0
 17 38  1  0
 18 39  1  0
 18 40  1  0
 19 41  1  0
 19 42  1  0
 20 43  1  0
 20 44  1  0
 21 45  1  0
M  END
>  <Energy>  (924) 
53.077495301857937

>  <compound_id>  (924) 
51165

>  <target_id>  (924) 
1

>  <reference_id>  (924) 
95

>  <inspiration_ids>  (924) 
[127, 95]

>  <energy_score>  (924) 
-62.64339469966313

>  <distance_score>  (924) 
1.8535495348098674

>  <path>  (924) 
/opt/xchem-fragalysis-2/maxwin/BulkDock/SCRATCH/511025/C51165-P95/C51165-P95.minimised.mol

>  <scratch_subdir>  (924) 
/opt/xchem-fragalysis-2/maxwin/BulkDock/SCRATCH/511025/C51165-P95

>  <fragmenstein_runtime>  (924) 
264.3710834980011

>  <fragmenstein_outcome>  (924) 
too moved

>  <fragmenstein_mode>  (924) 
expansion

>  <fragmenstein_error>  (924) 


$$$$
C51166-P127
     RDKit          3D

 42 43  0  0  0  0  0  0  0  0999 V2000
  -16.9632    0.6449   10.7969 C   0  0  0  0  0  0  0  0  0  0  0  0
  -16.1339    1.1393    9.5942 C   0  0  0  0  0  0  0  0  0  0  0  0
  -16.5628    0.3558    8.3406 C   0  0  0  0  0  0  0  0  0  0  0  0
  -16.4336    2.6316    9.4667 C   0  0  0  0  0  0  0  0  0  0  0  0
  -15.9727    3.5379   10.1447 O   0  0  0  0  0  0  0  0  0  0  0  0
  -17.3697    2.9401    8.5405 O   0  0  0  0  0  0  0  0  0  0  0  0
  -14.6897    0.9493    9.7940 N   0  0  0  0  0  0  0  0  0  0  0  0
  -13.6811    1.4681    9.0183 C   0  0  0  0  0  0  0  0  0  0  0  0
  -12.5106    0.9159    9.4646 C   0  0  0  0  0  0  0  0  0  0  0  0
  -11.2519    1.0940    8.9605 N   0  0  0  0  0  0  0  0  0  0  0  0
  -10.7154    2.1221    7.9214 C   0  0  0  0  0  0  0  0  0  0  0  0
  -11.2837    2.9215    7.2823 O   0  0  0  0  0  0  0  0  0  0  0  0
   -9.1793    1.9526    7.9028 C   0  0  0  0  0  0  0  0  0  0  0  0
   -8.7646    0.6285    8.2298 O   0  0  0  0  0  0  0  0  0  0  0  0
   -7.9079    0.0374    7.2611 C   0  0  0  0  0  0  0  0  0  0  0  0
   -6.4273    0.2458    7.5925 C   0  0  0  0  0  0  0  0  0  0  0  0
   -5.6942   -0.8819    6.8805 C   0  0  0  0  0  0  0  0  0  0  0  0
   -6.7471   -1.9537    6.6147 C   0  0  0  0  0  0  0  0  0  0  0  0
   -8.0238   -1.4785    7.2937 C   0  0  0  0  0  0  0  0  0  0  0  0
  -12.9070    0.1139   10.5432 C   0  0  0  0  0  0  0  0  0  0  0  0
  -14.2286    0.1064   10.7425 N   0  0  0  0  0  0  0  0  0  0  0  0
  -16.8441   -0.4327   10.9561 H   0  0  0  0  0  0  0  0  0  0  0  0
  -18.0315    0.8416   10.6472 H   0  0  0  0  0  0  0  0  0  0  0  0
  -16.6679    1.1537   11.7226 H   0  0  0  0  0  0  0  0  0  0  0  0
  -17.6466    0.4059    8.1841 H   0  0  0  0  0  0  0  0  0  0  0  0
  -16.0846    0.7501    7.4361 H   0  0  0  0  0  0  0  0  0  0  0  0
  -16.2918   -0.7019    8.4217 H   0  0  0  0  0  0  0  0  0  0  0  0
  -17.4465    3.9162    8.6151 H   0  0  0  0  0  0  0  0  0  0  0  0
  -13.8783    2.1474    8.2008 H   0  0  0  0  0  0  0  0  0  0  0  0
  -10.4686    0.6051    9.3917 H   0  0  0  0  0  0  0  0  0  0  0  0
   -8.8200    2.2678    6.9167 H   0  0  0  0  0  0  0  0  0  0  0  0
   -8.7669    2.6343    8.6523 H   0  0  0  0  0  0  0  0  0  0  0  0
   -8.1393    0.3855    6.2457 H   0  0  0  0  0  0  0  0  0  0  0  0
   -6.0720    1.2360    7.2919 H   0  0  0  0  0  0  0  0  0  0  0  0
   -6.2763    0.1605    8.6733 H   0  0  0  0  0  0  0  0  0  0  0  0
   -4.8716   -1.2643    7.4937 H   0  0  0  0  0  0  0  0  0  0  0  0
   -5.2649   -0.5321    5.9350 H   0  0  0  0  0  0  0  0  0  0  0  0
   -6.9107   -2.0459    5.5343 H   0  0  0  0  0  0  0  0  0  0  0  0
   -6.4351   -2.9375    6.9778 H   0  0  0  0  0  0  0  0  0  0  0  0
   -8.9240   -1.8326    6.7810 H   0  0  0  0  0  0  0  0  0  0  0  0
   -8.0801   -1.8492    8.3203 H   0  0  0  0  0  0  0  0  0  0  0  0
  -12.2735   -0.4716   11.1955 H   0  0  0  0  0  0  0  0  0  0  0  0
  1  2  1  0
  2  3  1  0
  2  4  1  0
  4  5  2  0
  4  6  1  0
  2  7  1  0
  7  8  1  0
  8  9  2  0
  9 10  1  0
 10 11  1  0
 11 12  2  0
 11 13  1  0
 13 14  1  0
 14 15  1  0
 15 16  1  0
 16 17  1  0
 17 18  1  0
 18 19  1  0
  9 20  1  0
 20 21  2  0
 21  7  1  0
 19 15  1  0
  1 22  1  0
  1 23  1  0
  1 24  1  0
  3 25  1  0
  3 26  1  0
  3 27  1  0
  6 28  1  0
  8 29  1  0
 10 30  1  0
 13 31  1  0
 13 32  1  0
 15 33  1  0
 16 34  1  0
 16 35  1  0
 17 36  1  0
 17 37  1  0
 18 38  1  0
 18 39  1  0
 19 40  1  0
 19 41  1  0
 20 42  1  0
M  END
>  <Energy>  (925) 
50.897127364787892

>  <compound_id>  (925) 
51166

>  <target_id>  (925) 
1

>  <reference_id>  (925) 
127

>  <inspiration_ids>  (925) 
[127, 95]

>  <energy_score>  (925) 
-40.084332922895044

>  <distance_score>  (925) 
4.644309869391044

>  <path>  (925) 
/opt/xchem-fragalysis-2/maxwin/BulkDock/SCRATCH/511025/C51166-P127/C51166-P127.minimised.mol

>  <scratch_subdir>  (925) 
/opt/xchem-fragalysis-2/maxwin/BulkDock/SCRATCH/511025/C51166-P127

>  <fragmenstein_runtime>  (925) 
5.603100061416626

>  <fragmenstein_outcome>  (925) 
too moved

>  <fragmenstein_mode>  (925) 
expansion

>  <fragmenstein_error>  (925) 


$$$$
C51166-P95
     RDKit          3D

 42 43  0  0  0  0  0  0  0  0999 V2000
  -17.0022    0.4969   10.6395 C   0  0  0  0  0  0  0  0  0  0  0  0
  -16.1286    0.8920    9.4319 C   0  0  0  0  0  0  0  0  0  0  0  0
  -16.4712   -0.0186    8.2395 C   0  0  0  0  0  0  0  0  0  0  0  0
  -16.4641    2.3540    9.1419 C   0  0  0  0  0  0  0  0  0  0  0  0
  -15.9916    3.3438    9.6809 O   0  0  0  0  0  0  0  0  0  0  0  0
  -17.4555    2.5289    8.2386 O   0  0  0  0  0  0  0  0  0  0  0  0
  -14.6920    0.7574    9.7200 N   0  0  0  0  0  0  0  0  0  0  0  0
  -13.6538    1.2935    8.9971 C   0  0  0  0  0  0  0  0  0  0  0  0
  -12.4954    0.8016    9.5358 C   0  0  0  0  0  0  0  0  0  0  0  0
  -11.2121    1.0551    9.1386 N   0  0  0  0  0  0  0  0  0  0  0  0
  -10.6649    2.0048    8.0304 C   0  0  0  0  0  0  0  0  0  0  0  0
  -11.2334    2.6542    7.2398 O   0  0  0  0  0  0  0  0  0  0  0  0
   -9.1345    2.0154    8.2093 C   0  0  0  0  0  0  0  0  0  0  0  0
   -8.5942    0.7208    8.4577 O   0  0  0  0  0  0  0  0  0  0  0  0
   -8.0192    0.1231    7.2972 C   0  0  0  0  0  0  0  0  0  0  0  0
   -6.5119    0.4481    7.1880 C   0  0  0  0  0  0  0  0  0  0  0  0
   -5.7812   -0.8885    7.2307 C   0  0  0  0  0  0  0  0  0  0  0  0
   -6.8151   -1.8801    6.7394 C   0  0  0  0  0  0  0  0  0  0  0  0
   -8.0945   -1.3977    7.3969 C   0  0  0  0  0  0  0  0  0  0  0  0
  -12.9335   -0.0127   10.5897 C   0  0  0  0  0  0  0  0  0  0  0  0
  -14.2632   -0.0629   10.7043 N   0  0  0  0  0  0  0  0  0  0  0  0
  -16.7599    1.1026   11.5213 H   0  0  0  0  0  0  0  0  0  0  0  0
  -16.8679   -0.5554   10.9117 H   0  0  0  0  0  0  0  0  0  0  0  0
  -18.0667    0.6492   10.4248 H   0  0  0  0  0  0  0  0  0  0  0  0
  -16.1741   -1.0553    8.4311 H   0  0  0  0  0  0  0  0  0  0  0  0
  -15.9588    0.3080    7.3268 H   0  0  0  0  0  0  0  0  0  0  0  0
  -17.5465   -0.0205    8.0270 H   0  0  0  0  0  0  0  0  0  0  0  0
  -17.5493    3.5045    8.1855 H   0  0  0  0  0  0  0  0  0  0  0  0
  -13.8216    1.9568    8.1598 H   0  0  0  0  0  0  0  0  0  0  0  0
  -10.4347    0.5824    9.5963 H   0  0  0  0  0  0  0  0  0  0  0  0
   -8.6659    2.4953    7.3423 H   0  0  0  0  0  0  0  0  0  0  0  0
   -8.9256    2.6371    9.0858 H   0  0  0  0  0  0  0  0  0  0  0  0
   -8.5467    0.4482    6.3906 H   0  0  0  0  0  0  0  0  0  0  0  0
   -6.3233    0.9352    6.2240 H   0  0  0  0  0  0  0  0  0  0  0  0
   -6.1623    1.1226    7.9750 H   0  0  0  0  0  0  0  0  0  0  0  0
   -5.4910   -1.1181    8.2616 H   0  0  0  0  0  0  0  0  0  0  0  0
   -4.8773   -0.8945    6.6160 H   0  0  0  0  0  0  0  0  0  0  0  0
   -6.9056   -1.8265    5.6478 H   0  0  0  0  0  0  0  0  0  0  0  0
   -6.5691   -2.9109    7.0076 H   0  0  0  0  0  0  0  0  0  0  0  0
   -8.9848   -1.7928    6.8972 H   0  0  0  0  0  0  0  0  0  0  0  0
   -8.1405   -1.7238    8.4379 H   0  0  0  0  0  0  0  0  0  0  0  0
  -12.3251   -0.5679   11.2898 H   0  0  0  0  0  0  0  0  0  0  0  0
  1  2  1  0
  2  3  1  0
  2  4  1  0
  4  5  2  0
  4  6  1  0
  2  7  1  0
  7  8  1  0
  8  9  2  0
  9 10  1  0
 10 11  1  0
 11 12  2  0
 11 13  1  0
 13 14  1  0
 14 15  1  0
 15 16  1  0
 16 17  1  0
 17 18  1  0
 18 19  1  0
  9 20  1  0
 20 21  2  0
 21  7  1  0
 19 15  1  0
  1 22  1  0
  1 23  1  0
  1 24  1  0
  3 25  1  0
  3 26  1  0
  3 27  1  0
  6 28  1  0
  8 29  1  0
 10 30  1  0
 13 31  1  0
 13 32  1  0
 15 33  1  0
 16 34  1  0
 16 35  1  0
 17 36  1  0
 17 37  1  0
 18 38  1  0
 18 39  1  0
 19 40  1  0
 19 41  1  0
 20 42  1  0
M  END
>  <Energy>  (926) 
49.783009034471313

>  <compound_id>  (926) 
51166

>  <target_id>  (926) 
1

>  <reference_id>  (926) 
95

>  <inspiration_ids>  (926) 
[127, 95]

>  <energy_score>  (926) 
-41.1984512532116

>  <distance_score>  (926) 
4.637111746437512

>  <path>  (926) 
/opt/xchem-fragalysis-2/maxwin/BulkDock/SCRATCH/511025/C51166-P95/C51166-P95.minimised.mol

>  <scratch_subdir>  (926) 
/opt/xchem-fragalysis-2/maxwin/BulkDock/SCRATCH/511025/C51166-P95

>  <fragmenstein_runtime>  (926) 
6.383859634399414

>  <fragmenstein_outcome>  (926) 
too moved

>  <fragmenstein_mode>  (926) 
expansion

>  <fragmenstein_error>  (926) 


$$$$
C51167-P127
     RDKit          3D

 42 43  0  0  0  0  0  0  0  0999 V2000
  -14.9128    0.5598    9.2184 C   0  0  0  0  0  0  0  0  0  0  0  0
  -13.9326    1.6351    9.7325 C   0  0  0  0  0  0  0  0  0  0  0  0
  -14.5022    3.0203    9.3828 C   0  0  0  0  0  0  0  0  0  0  0  0
  -13.8155    1.4209   11.2437 C   0  0  0  0  0  0  0  0  0  0  0  0
  -13.6198    0.3521   11.8079 O   0  0  0  0  0  0  0  0  0  0  0  0
  -13.9707    2.5355   11.9926 O   0  0  0  0  0  0  0  0  0  0  0  0
  -12.6015    1.4987    9.1290 N   0  0  0  0  0  0  0  0  0  0  0  0
  -12.2897    0.9560    7.9135 C   0  0  0  0  0  0  0  0  0  0  0  0
  -10.9259    1.0132    7.8103 C   0  0  0  0  0  0  0  0  0  0  0  0
  -10.1809    0.5180    6.7885 N   0  0  0  0  0  0  0  0  0  0  0  0
  -10.6167   -0.1608    5.4560 C   0  0  0  0  0  0  0  0  0  0  0  0
  -11.6826   -0.3259    5.0028 O   0  0  0  0  0  0  0  0  0  0  0  0
   -9.3334   -0.5406    4.7069 C   0  0  0  0  0  0  0  0  0  0  0  0
   -8.3184   -1.2865    5.5451 C   0  0  0  0  0  0  0  0  0  0  0  0
   -7.1524   -0.7117    5.9126 C   0  0  0  0  0  0  0  0  0  0  0  0
   -6.0639   -1.4393    6.6306 C   0  0  0  0  0  0  0  0  0  0  0  0
   -6.2364   -2.9440    6.4936 C   0  0  0  0  0  0  0  0  0  0  0  0
   -7.6577   -3.3687    6.8413 C   0  0  0  0  0  0  0  0  0  0  0  0
   -8.6682   -2.7185    5.8988 C   0  0  0  0  0  0  0  0  0  0  0  0
  -10.4951    1.6636    8.9762 C   0  0  0  0  0  0  0  0  0  0  0  0
  -11.5194    2.0237    9.7512 N   0  0  0  0  0  0  0  0  0  0  0  0
  -15.8577    0.5924    9.7742 H   0  0  0  0  0  0  0  0  0  0  0  0
  -15.1532    0.6962    8.1582 H   0  0  0  0  0  0  0  0  0  0  0  0
  -14.4988   -0.4474    9.3410 H   0  0  0  0  0  0  0  0  0  0  0  0
  -13.8461    3.8277    9.7295 H   0  0  0  0  0  0  0  0  0  0  0  0
  -14.6160    3.1408    8.2990 H   0  0  0  0  0  0  0  0  0  0  0  0
  -15.4852    3.1741    9.8427 H   0  0  0  0  0  0  0  0  0  0  0  0
  -13.7155    2.2502   12.8967 H   0  0  0  0  0  0  0  0  0  0  0  0
  -13.0322    0.5342    7.2506 H   0  0  0  0  0  0  0  0  0  0  0  0
   -9.1723    0.5629    6.8308 H   0  0  0  0  0  0  0  0  0  0  0  0
   -8.9110    0.3866    4.3001 H   0  0  0  0  0  0  0  0  0  0  0  0
   -9.6099   -1.1619    3.8463 H   0  0  0  0  0  0  0  0  0  0  0  0
   -6.9381    0.3194    5.6410 H   0  0  0  0  0  0  0  0  0  0  0  0
   -6.0667   -1.1420    7.6857 H   0  0  0  0  0  0  0  0  0  0  0  0
   -5.0926   -1.1511    6.2128 H   0  0  0  0  0  0  0  0  0  0  0  0
   -6.0007   -3.2578    5.4683 H   0  0  0  0  0  0  0  0  0  0  0  0
   -5.5133   -3.4348    7.1437 H   0  0  0  0  0  0  0  0  0  0  0  0
   -7.7523   -4.4586    6.7981 H   0  0  0  0  0  0  0  0  0  0  0  0
   -7.8915   -3.0728    7.8707 H   0  0  0  0  0  0  0  0  0  0  0  0
   -9.6624   -2.7651    6.3579 H   0  0  0  0  0  0  0  0  0  0  0  0
   -8.7153   -3.2943    4.9672 H   0  0  0  0  0  0  0  0  0  0  0  0
   -9.4897    1.9068    9.2912 H   0  0  0  0  0  0  0  0  0  0  0  0
  1  2  1  0
  2  3  1  0
  2  4  1  0
  4  5  2  0
  4  6  1  0
  2  7  1  0
  7  8  1  0
  8  9  2  0
  9 10  1  0
 10 11  1  0
 11 12  2  0
 11 13  1  0
 13 14  1  0
 14 15  2  0
 15 16  1  0
 16 17  1  0
 17 18  1  0
 18 19  1  0
  9 20  1  0
 20 21  2  0
 21  7  1  0
 19 14  1  0
  1 22  1  0
  1 23  1  0
  1 24  1  0
  3 25  1  0
  3 26  1  0
  3 27  1  0
  6 28  1  0
  8 29  1  0
 10 30  1  0
 13 31  1  0
 13 32  1  0
 15 33  1  0
 16 34  1  0
 16 35  1  0
 17 36  1  0
 17 37  1  0
 18 38  1  0
 18 39  1  0
 19 40  1  0
 19 41  1  0
 20 42  1  0
M  END
>  <Energy>  (927) 
35.687958612528519

>  <compound_id>  (927) 
51167

>  <target_id>  (927) 
1

>  <reference_id>  (927) 
127

>  <inspiration_ids>  (927) 
[127, 95]

>  <energy_score>  (927) 
-31.289314457358103

>  <distance_score>  (927) 
1.8185810626246433

>  <path>  (927) 
/opt/xchem-fragalysis-2/maxwin/BulkDock/SCRATCH/511025/C51167-P127/C51167-P127.minimised.mol

>  <scratch_subdir>  (927) 
/opt/xchem-fragalysis-2/maxwin/BulkDock/SCRATCH/511025/C51167-P127

>  <fragmenstein_runtime>  (927) 
25.489781856536865

>  <fragmenstein_outcome>  (927) 
too moved

>  <fragmenstein_mode>  (927) 
expansion

>  <fragmenstein_error>  (927) 


$$$$
C51167-P95
     RDKit          3D

 42 43  0  0  0  0  0  0  0  0999 V2000
  -14.8341    0.4613    9.2900 C   0  0  0  0  0  0  0  0  0  0  0  0
  -14.0476    1.7769    9.4505 C   0  0  0  0  0  0  0  0  0  0  0  0
  -14.7551    2.8801    8.6398 C   0  0  0  0  0  0  0  0  0  0  0  0
  -14.0526    2.2009   10.9207 C   0  0  0  0  0  0  0  0  0  0  0  0
  -14.2015    3.3395   11.3473 O   0  0  0  0  0  0  0  0  0  0  0  0
  -13.8881    1.1886   11.8026 O   0  0  0  0  0  0  0  0  0  0  0  0
  -12.6734    1.6057    8.9573 N   0  0  0  0  0  0  0  0  0  0  0  0
  -12.3165    1.1712    7.7080 C   0  0  0  0  0  0  0  0  0  0  0  0
  -10.9586    1.0048    7.7368 C   0  0  0  0  0  0  0  0  0  0  0  0
  -10.1945    0.4987    6.7333 N   0  0  0  0  0  0  0  0  0  0  0  0
  -10.5960   -0.0236    5.3210 C   0  0  0  0  0  0  0  0  0  0  0  0
  -11.6341   -0.0252    4.7799 O   0  0  0  0  0  0  0  0  0  0  0  0
   -9.3125   -0.5000    4.6217 C   0  0  0  0  0  0  0  0  0  0  0  0
   -8.3444   -1.2948    5.4715 C   0  0  0  0  0  0  0  0  0  0  0  0
   -7.1660   -0.7651    5.8676 C   0  0  0  0  0  0  0  0  0  0  0  0
   -6.1152   -1.5377    6.5948 C   0  0  0  0  0  0  0  0  0  0  0  0
   -6.3420   -3.0341    6.4418 C   0  0  0  0  0  0  0  0  0  0  0  0
   -7.7840   -3.4097    6.7599 C   0  0  0  0  0  0  0  0  0  0  0  0
   -8.7518   -2.7173    5.8020 C   0  0  0  0  0  0  0  0  0  0  0  0
  -10.5632    1.4316    9.0143 C   0  0  0  0  0  0  0  0  0  0  0  0
  -11.6012    1.8401    9.7467 N   0  0  0  0  0  0  0  0  0  0  0  0
  -15.8214    0.5327    9.7612 H   0  0  0  0  0  0  0  0  0  0  0  0
  -14.9888    0.2017    8.2367 H   0  0  0  0  0  0  0  0  0  0  0  0
  -14.3068   -0.3790    9.7573 H   0  0  0  0  0  0  0  0  0  0  0  0
  -14.1987    3.8243    8.6829 H   0  0  0  0  0  0  0  0  0  0  0  0
  -14.8545    2.6090    7.5826 H   0  0  0  0  0  0  0  0  0  0  0  0
  -15.7620    3.0731    9.0285 H   0  0  0  0  0  0  0  0  0  0  0  0
  -13.7655    1.6466   12.6612 H   0  0  0  0  0  0  0  0  0  0  0  0
  -13.0464    0.9560    6.9393 H   0  0  0  0  0  0  0  0  0  0  0  0
   -9.2279    0.2686    6.9165 H   0  0  0  0  0  0  0  0  0  0  0  0
   -8.8291    0.3959    4.2118 H   0  0  0  0  0  0  0  0  0  0  0  0
   -9.6071   -1.1143    3.7614 H   0  0  0  0  0  0  0  0  0  0  0  0
   -6.9129    0.2614    5.6119 H   0  0  0  0  0  0  0  0  0  0  0  0
   -6.1229   -1.2493    7.6522 H   0  0  0  0  0  0  0  0  0  0  0  0
   -5.1279   -1.2824    6.1937 H   0  0  0  0  0  0  0  0  0  0  0  0
   -6.0980   -3.3495    5.4189 H   0  0  0  0  0  0  0  0  0  0  0  0
   -5.6522   -3.5573    7.1010 H   0  0  0  0  0  0  0  0  0  0  0  0
   -7.9169   -4.4953    6.7062 H   0  0  0  0  0  0  0  0  0  0  0  0
   -8.0268   -3.1127    7.7873 H   0  0  0  0  0  0  0  0  0  0  0  0
   -9.7567   -2.7317    6.2397 H   0  0  0  0  0  0  0  0  0  0  0  0
   -8.7987   -3.2857    4.8650 H   0  0  0  0  0  0  0  0  0  0  0  0
   -9.5725    1.4646    9.4474 H   0  0  0  0  0  0  0  0  0  0  0  0
  1  2  1  0
  2  3  1  0
  2  4  1  0
  4  5  2  0
  4  6  1  0
  2  7  1  0
  7  8  1  0
  8  9  2  0
  9 10  1  0
 10 11  1  0
 11 12  2  0
 11 13  1  0
 13 14  1  0
 14 15  2  0
 15 16  1  0
 16 17  1  0
 17 18  1  0
 18 19  1  0
  9 20  1  0
 20 21  2  0
 21  7  1  0
 19 14  1  0
  1 22  1  0
  1 23  1  0
  1 24  1  0
  3 25  1  0
  3 26  1  0
  3 27  1  0
  6 28  1  0
  8 29  1  0
 10 30  1  0
 13 31  1  0
 13 32  1  0
 15 33  1  0
 16 34  1  0
 16 35  1  0
 17 36  1  0
 17 37  1  0
 18 38  1  0
 18 39  1  0
 19 40  1  0
 19 41  1  0
 20 42  1  0
M  END
>  <Energy>  (928) 
37.050693197529348

>  <compound_id>  (928) 
51167

>  <target_id>  (928) 
1

>  <reference_id>  (928) 
95

>  <inspiration_ids>  (928) 
[127, 95]

>  <energy_score>  (928) 
-29.92657987235725

>  <distance_score>  (928) 
1.9999461812470583

>  <path>  (928) 
/opt/xchem-fragalysis-2/maxwin/BulkDock/SCRATCH/511025/C51167-P95/C51167-P95.minimised.mol

>  <scratch_subdir>  (928) 
/opt/xchem-fragalysis-2/maxwin/BulkDock/SCRATCH/511025/C51167-P95

>  <fragmenstein_runtime>  (928) 
25.423269748687744

>  <fragmenstein_outcome>  (928) 
too moved

>  <fragmenstein_mode>  (928) 
expansion

>  <fragmenstein_error>  (928) 


$$$$
C51168-P127
     RDKit          3D

 45 46  0  0  0  0  0  0  0  0999 V2000
  -15.3102    0.9166    8.8722 C   0  0  0  0  0  0  0  0  0  0  0  0
  -14.2488    1.8569    9.4793 C   0  0  0  0  0  0  0  0  0  0  0  0
  -14.4734    3.2709    8.9172 C   0  0  0  0  0  0  0  0  0  0  0  0
  -14.4394    1.7795   10.9952 C   0  0  0  0  0  0  0  0  0  0  0  0
  -14.3144    0.7797   11.6912 O   0  0  0  0  0  0  0  0  0  0  0  0
  -14.8444    2.9285   11.5799 O   0  0  0  0  0  0  0  0  0  0  0  0
  -12.8806    1.4276    9.1738 N   0  0  0  0  0  0  0  0  0  0  0  0
  -12.4889    0.3974    8.3713 C   0  0  0  0  0  0  0  0  0  0  0  0
  -11.1535    0.2279    8.6109 C   0  0  0  0  0  0  0  0  0  0  0  0
  -10.3955   -0.7876    8.1305 N   0  0  0  0  0  0  0  0  0  0  0  0
  -10.7087   -1.8554    7.0342 C   0  0  0  0  0  0  0  0  0  0  0  0
  -11.6364   -1.9691    6.3301 O   0  0  0  0  0  0  0  0  0  0  0  0
   -9.4672   -2.7415    6.9491 C   0  0  0  0  0  0  0  0  0  0  0  0
   -8.4871   -2.2289    5.8910 C   0  0  0  0  0  0  0  0  0  0  0  0
   -8.3332   -0.6948    5.9593 C   0  0  0  0  0  0  0  0  0  0  0  0
   -7.1752   -0.0892    5.1875 C   0  0  0  0  0  0  0  0  0  0  0  0
   -6.9994   -0.6763    3.8337 C   0  0  0  0  0  0  0  0  0  0  0  0
   -6.5839   -1.9337    3.6375 C   0  0  0  0  0  0  0  0  0  0  0  0
   -6.3237   -2.9684    4.7024 C   0  0  0  0  0  0  0  0  0  0  0  0
   -7.1245   -2.9270    6.0151 C   0  0  0  0  0  0  0  0  0  0  0  0
  -10.7883    1.2851    9.4567 C   0  0  0  0  0  0  0  0  0  0  0  0
  -11.8313    2.0666    9.7479 N   0  0  0  0  0  0  0  0  0  0  0  0
  -15.2732    0.9165    7.7767 H   0  0  0  0  0  0  0  0  0  0  0  0
  -16.3200    1.2279    9.1664 H   0  0  0  0  0  0  0  0  0  0  0  0
  -15.1849   -0.1172    9.2160 H   0  0  0  0  0  0  0  0  0  0  0  0
  -14.3020    3.2973    7.8346 H   0  0  0  0  0  0  0  0  0  0  0  0
  -13.7959    4.0024    9.3732 H   0  0  0  0  0  0  0  0  0  0  0  0
  -15.4970    3.6168    9.1022 H   0  0  0  0  0  0  0  0  0  0  0  0
  -14.8223    2.7146   12.5375 H   0  0  0  0  0  0  0  0  0  0  0  0
  -13.1747   -0.1982    7.7840 H   0  0  0  0  0  0  0  0  0  0  0  0
   -9.4665   -0.9387    8.4934 H   0  0  0  0  0  0  0  0  0  0  0  0
   -9.7900   -3.7525    6.6812 H   0  0  0  0  0  0  0  0  0  0  0  0
   -8.9860   -2.8263    7.9302 H   0  0  0  0  0  0  0  0  0  0  0  0
   -8.9319   -2.4833    4.9187 H   0  0  0  0  0  0  0  0  0  0  0  0
   -9.2585   -0.2223    5.6055 H   0  0  0  0  0  0  0  0  0  0  0  0
   -8.1812   -0.3790    6.9966 H   0  0  0  0  0  0  0  0  0  0  0  0
   -6.2416   -0.1980    5.7550 H   0  0  0  0  0  0  0  0  0  0  0  0
   -7.3295    0.9929    5.0941 H   0  0  0  0  0  0  0  0  0  0  0  0
   -7.1785   -0.0314    2.9768 H   0  0  0  0  0  0  0  0  0  0  0  0
   -6.4425   -2.2708    2.6111 H   0  0  0  0  0  0  0  0  0  0  0  0
   -6.5270   -3.9373    4.2324 H   0  0  0  0  0  0  0  0  0  0  0  0
   -5.2506   -2.9812    4.9289 H   0  0  0  0  0  0  0  0  0  0  0  0
   -7.2573   -3.9615    6.3578 H   0  0  0  0  0  0  0  0  0  0  0  0
   -6.5252   -2.4367    6.7933 H   0  0  0  0  0  0  0  0  0  0  0  0
   -9.8183    1.5275    9.8688 H   0  0  0  0  0  0  0  0  0  0  0  0
  1  2  1  0
  2  3  1  0
  2  4  1  0
  4  5  2  0
  4  6  1  0
  2  7  1  0
  7  8  1  0
  8  9  2  0
  9 10  1  0
 10 11  1  0
 11 12  2  0
 11 13  1  0
 13 14  1  0
 14 15  1  0
 15 16  1  0
 16 17  1  0
 17 18  2  0
 18 19  1  0
 19 20  1  0
  9 21  1  0
 21 22  2  0
 22  7  1  0
 20 14  1  0
  1 23  1  0
  1 24  1  0
  1 25  1  0
  3 26  1  0
  3 27  1  0
  3 28  1  0
  6 29  1  0
  8 30  1  0
 10 31  1  0
 13 32  1  0
 13 33  1  0
 14 34  1  0
 15 35  1  0
 15 36  1  0
 16 37  1  0
 16 38  1  0
 17 39  1  0
 18 40  1  0
 19 41  1  0
 19 42  1  0
 20 43  1  0
 20 44  1  0
 21 45  1  0
M  END
>  <Energy>  (929) 
40.44365046536727

>  <compound_id>  (929) 
51168

>  <target_id>  (929) 
1

>  <reference_id>  (929) 
127

>  <inspiration_ids>  (929) 
[127, 95]

>  <energy_score>  (929) 
-19.07620395515687

>  <distance_score>  (929) 
2.159263312992931

>  <path>  (929) 
/opt/xchem-fragalysis-2/maxwin/BulkDock/SCRATCH/511025/C51168-P127/C51168-P127.minimised.mol

>  <scratch_subdir>  (929) 
/opt/xchem-fragalysis-2/maxwin/BulkDock/SCRATCH/511025/C51168-P127

>  <fragmenstein_runtime>  (929) 
62.670437812805176

>  <fragmenstein_outcome>  (929) 
too moved

>  <fragmenstein_mode>  (929) 
expansion

>  <fragmenstein_error>  (929) 


$$$$
C51168-P95
     RDKit          3D

 45 46  0  0  0  0  0  0  0  0999 V2000
  -15.0666    0.9866    9.1342 C   0  0  0  0  0  0  0  0  0  0  0  0
  -14.0887    2.1473    9.4202 C   0  0  0  0  0  0  0  0  0  0  0  0
  -14.4104    3.3031    8.4561 C   0  0  0  0  0  0  0  0  0  0  0  0
  -14.3275    2.5967   10.8594 C   0  0  0  0  0  0  0  0  0  0  0  0
  -14.8641    3.6360   11.2203 O   0  0  0  0  0  0  0  0  0  0  0  0
  -13.9508    1.6932   11.7933 O   0  0  0  0  0  0  0  0  0  0  0  0
  -12.6834    1.7611    9.2528 N   0  0  0  0  0  0  0  0  0  0  0  0
  -12.2040    0.6045    8.7169 C   0  0  0  0  0  0  0  0  0  0  0  0
  -10.8411    0.6684    8.8180 C   0  0  0  0  0  0  0  0  0  0  0  0
  -10.0077   -0.3247    8.4229 N   0  0  0  0  0  0  0  0  0  0  0  0
  -10.3110   -1.6725    7.7100 C   0  0  0  0  0  0  0  0  0  0  0  0
  -11.3141   -2.0956    7.2870 O   0  0  0  0  0  0  0  0  0  0  0  0
   -8.9792   -2.4100    7.5692 C   0  0  0  0  0  0  0  0  0  0  0  0
   -8.7075   -2.8396    6.1175 C   0  0  0  0  0  0  0  0  0  0  0  0
   -9.2267   -1.7835    5.1262 C   0  0  0  0  0  0  0  0  0  0  0  0
   -8.5807   -1.7929    3.7553 C   0  0  0  0  0  0  0  0  0  0  0  0
   -7.2602   -1.0918    3.7292 C   0  0  0  0  0  0  0  0  0  0  0  0
   -6.3009   -1.1554    4.6627 C   0  0  0  0  0  0  0  0  0  0  0  0
   -6.2565   -2.0195    5.8928 C   0  0  0  0  0  0  0  0  0  0  0  0
   -7.2239   -3.2064    5.9444 C   0  0  0  0  0  0  0  0  0  0  0  0
  -10.5695    1.9218    9.3775 C   0  0  0  0  0  0  0  0  0  0  0  0
  -11.6896    2.6151    9.6057 N   0  0  0  0  0  0  0  0  0  0  0  0
  -15.0243    0.6696    8.0859 H   0  0  0  0  0  0  0  0  0  0  0  0
  -16.1001    1.2869    9.3450 H   0  0  0  0  0  0  0  0  0  0  0  0
  -14.8552    0.1122    9.7615 H   0  0  0  0  0  0  0  0  0  0  0  0
  -14.2179    3.0170    7.4154 H   0  0  0  0  0  0  0  0  0  0  0  0
  -13.8035    4.1906    8.6716 H   0  0  0  0  0  0  0  0  0  0  0  0
  -15.4613    3.6055    8.5334 H   0  0  0  0  0  0  0  0  0  0  0  0
  -14.0848    2.1568   12.6470 H   0  0  0  0  0  0  0  0  0  0  0  0
  -12.8423   -0.1825    8.3372 H   0  0  0  0  0  0  0  0  0  0  0  0
   -9.0150   -0.2447    8.5851 H   0  0  0  0  0  0  0  0  0  0  0  0
   -9.0087   -3.2980    8.2091 H   0  0  0  0  0  0  0  0  0  0  0  0
   -8.1526   -1.8027    7.9443 H   0  0  0  0  0  0  0  0  0  0  0  0
   -9.2845   -3.7578    5.9372 H   0  0  0  0  0  0  0  0  0  0  0  0
  -10.3011   -1.9454    4.9778 H   0  0  0  0  0  0  0  0  0  0  0  0
   -9.1286   -0.7747    5.5500 H   0  0  0  0  0  0  0  0  0  0  0  0
   -9.2464   -1.2480    3.0729 H   0  0  0  0  0  0  0  0  0  0  0  0
   -8.4918   -2.8053    3.3461 H   0  0  0  0  0  0  0  0  0  0  0  0
   -7.0968   -0.4338    2.8767 H   0  0  0  0  0  0  0  0  0  0  0  0
   -5.4185   -0.5298    4.5208 H   0  0  0  0  0  0  0  0  0  0  0  0
   -5.2412   -2.4350    5.9474 H   0  0  0  0  0  0  0  0  0  0  0  0
   -6.3653   -1.3802    6.7748 H   0  0  0  0  0  0  0  0  0  0  0  0
   -7.0981   -3.8071    5.0351 H   0  0  0  0  0  0  0  0  0  0  0  0
   -6.9256   -3.8644    6.7708 H   0  0  0  0  0  0  0  0  0  0  0  0
   -9.6160    2.3730    9.6166 H   0  0  0  0  0  0  0  0  0  0  0  0
  1  2  1  0
  2  3  1  0
  2  4  1  0
  4  5  2  0
  4  6  1  0
  2  7  1  0
  7  8  1  0
  8  9  2  0
  9 10  1  0
 10 11  1  0
 11 12  2  0
 11 13  1  0
 13 14  1  0
 14 15  1  0
 15 16  1  0
 16 17  1  0
 17 18  2  0
 18 19  1  0
 19 20  1  0
  9 21  1  0
 21 22  2  0
 22  7  1  0
 20 14  1  0
  1 23  1  0
  1 24  1  0
  1 25  1  0
  3 26  1  0
  3 27  1  0
  3 28  1  0
  6 29  1  0
  8 30  1  0
 10 31  1  0
 13 32  1  0
 13 33  1  0
 14 34  1  0
 15 35  1  0
 15 36  1  0
 16 37  1  0
 16 38  1  0
 17 39  1  0
 18 40  1  0
 19 41  1  0
 19 42  1  0
 20 43  1  0
 20 44  1  0
 21 45  1  0
M  END
>  <Energy>  (930) 
35.407488358924418

>  <compound_id>  (930) 
51168

>  <target_id>  (930) 
1

>  <reference_id>  (930) 
95

>  <inspiration_ids>  (930) 
[127, 95]

>  <energy_score>  (930) 
-24.11236606159892

>  <distance_score>  (930) 
2.1094751921600636

>  <path>  (930) 
/opt/xchem-fragalysis-2/maxwin/BulkDock/SCRATCH/511025/C51168-P95/C51168-P95.minimised.mol

>  <scratch_subdir>  (930) 
/opt/xchem-fragalysis-2/maxwin/BulkDock/SCRATCH/511025/C51168-P95

>  <fragmenstein_runtime>  (930) 
82.93701481819153

>  <fragmenstein_outcome>  (930) 
too moved

>  <fragmenstein_mode>  (930) 
expansion

>  <fragmenstein_error>  (930) 


$$$$
C51169-P127
     RDKit          3D

 44 45  0  0  0  0  0  0  0  0999 V2000
  -15.0919    1.8567    8.8148 C   0  0  0  0  0  0  0  0  0  0  0  0
  -14.0729    0.7480    9.0988 C   0  0  0  0  0  0  0  0  0  0  0  0
  -14.2891   -0.3586    8.0565 C   0  0  0  0  0  0  0  0  0  0  0  0
  -14.3913    0.2498   10.5035 C   0  0  0  0  0  0  0  0  0  0  0  0
  -15.2588   -0.5592   10.8037 O   0  0  0  0  0  0  0  0  0  0  0  0
  -13.6925    0.8447   11.4924 O   0  0  0  0  0  0  0  0  0  0  0  0
  -12.6821    1.2090    8.9977 N   0  0  0  0  0  0  0  0  0  0  0  0
  -11.5642    0.4487    9.2338 C   0  0  0  0  0  0  0  0  0  0  0  0
  -10.5142    1.1741    8.7442 C   0  0  0  0  0  0  0  0  0  0  0  0
   -9.2382    0.7342    8.6508 N   0  0  0  0  0  0  0  0  0  0  0  0
   -8.0178    1.3386    7.9137 C   0  0  0  0  0  0  0  0  0  0  0  0
   -7.9053    2.3480    7.3379 O   0  0  0  0  0  0  0  0  0  0  0  0
   -6.9174    0.3042    7.9863 C   0  0  0  0  0  0  0  0  0  0  0  0
   -6.9996   -0.7167    6.8461 C   0  0  0  0  0  0  0  0  0  0  0  0
   -5.5956   -1.3206    6.6973 C   0  0  0  0  0  0  0  0  0  0  0  0
   -5.5526   -2.3112    5.5541 C   0  0  0  0  0  0  0  0  0  0  0  0
   -6.6031   -3.3950    5.7305 C   0  0  0  0  0  0  0  0  0  0  0  0
   -8.0036   -2.8404    5.9175 C   0  0  0  0  0  0  0  0  0  0  0  0
   -8.0540   -1.8199    7.0472 C   0  0  0  0  0  0  0  0  0  0  0  0
  -11.0611    2.3846    8.3073 C   0  0  0  0  0  0  0  0  0  0  0  0
  -12.3887    2.4087    8.4436 N   0  0  0  0  0  0  0  0  0  0  0  0
  -14.9962    2.2496    7.7958 H   0  0  0  0  0  0  0  0  0  0  0  0
  -14.9706    2.6986    9.5077 H   0  0  0  0  0  0  0  0  0  0  0  0
  -16.1209    1.4948    8.9309 H   0  0  0  0  0  0  0  0  0  0  0  0
  -13.6478   -1.2244    8.2505 H   0  0  0  0  0  0  0  0  0  0  0  0
  -15.3293   -0.7019    8.0502 H   0  0  0  0  0  0  0  0  0  0  0  0
  -14.0551   -0.0034    7.0455 H   0  0  0  0  0  0  0  0  0  0  0  0
  -14.0501    0.4887   12.3319 H   0  0  0  0  0  0  0  0  0  0  0  0
  -11.6256   -0.5484    9.6456 H   0  0  0  0  0  0  0  0  0  0  0  0
   -9.0115   -0.1989    8.9718 H   0  0  0  0  0  0  0  0  0  0  0  0
   -6.8950   -0.1804    8.9638 H   0  0  0  0  0  0  0  0  0  0  0  0
   -5.9793    0.8690    7.9136 H   0  0  0  0  0  0  0  0  0  0  0  0
   -7.2435   -0.1831    5.9166 H   0  0  0  0  0  0  0  0  0  0  0  0
   -5.2937   -1.8142    7.6279 H   0  0  0  0  0  0  0  0  0  0  0  0
   -4.8585   -0.5313    6.5037 H   0  0  0  0  0  0  0  0  0  0  0  0
   -5.7201   -1.7889    4.6041 H   0  0  0  0  0  0  0  0  0  0  0  0
   -4.5572   -2.7649    5.4940 H   0  0  0  0  0  0  0  0  0  0  0  0
   -6.5745   -4.0492    4.8554 H   0  0  0  0  0  0  0  0  0  0  0  0
   -6.3537   -4.0061    6.6024 H   0  0  0  0  0  0  0  0  0  0  0  0
   -8.3355   -2.3679    4.9847 H   0  0  0  0  0  0  0  0  0  0  0  0
   -8.7046   -3.6560    6.1279 H   0  0  0  0  0  0  0  0  0  0  0  0
   -7.8930   -2.3249    8.0059 H   0  0  0  0  0  0  0  0  0  0  0  0
   -9.0600   -1.3899    7.0729 H   0  0  0  0  0  0  0  0  0  0  0  0
  -10.5575    3.2324    7.8608 H   0  0  0  0  0  0  0  0  0  0  0  0
  1  2  1  0
  2  3  1  0
  2  4  1  0
  4  5  2  0
  4  6  1  0
  2  7  1  0
  7  8  1  0
  8  9  2  0
  9 10  1  0
 10 11  1  0
 11 12  2  0
 11 13  1  0
 13 14  1  0
 14 15  1  0
 15 16  1  0
 16 17  1  0
 17 18  1  0
 18 19  1  0
  9 20  1  0
 20 21  2  0
 21  7  1  0
 19 14  1  0
  1 22  1  0
  1 23  1  0
  1 24  1  0
  3 25  1  0
  3 26  1  0
  3 27  1  0
  6 28  1  0
  8 29  1  0
 10 30  1  0
 13 31  1  0
 13 32  1  0
 14 33  1  0
 15 34  1  0
 15 35  1  0
 16 36  1  0
 16 37  1  0
 17 38  1  0
 17 39  1  0
 18 40  1  0
 18 41  1  0
 19 42  1  0
 19 43  1  0
 20 44  1  0
M  END
>  <Energy>  (931) 
16.73912881085441

>  <compound_id>  (931) 
51169

>  <target_id>  (931) 
1

>  <reference_id>  (931) 
127

>  <inspiration_ids>  (931) 
[127, 95]

>  <energy_score>  (931) 
-62.30242020164775

>  <distance_score>  (931) 
2.3675530736915205

>  <path>  (931) 
/opt/xchem-fragalysis-2/maxwin/BulkDock/SCRATCH/511025/C51169-P127/C51169-P127.minimised.mol

>  <scratch_subdir>  (931) 
/opt/xchem-fragalysis-2/maxwin/BulkDock/SCRATCH/511025/C51169-P127

>  <fragmenstein_runtime>  (931) 
46.39349722862244

>  <fragmenstein_outcome>  (931) 
too moved

>  <fragmenstein_mode>  (931) 
expansion

>  <fragmenstein_error>  (931) 


$$$$
C51169-P95
     RDKit          3D

 44 45  0  0  0  0  0  0  0  0999 V2000
  -15.1798    1.5929    8.5576 C   0  0  0  0  0  0  0  0  0  0  0  0
  -14.2259    0.4421    8.9091 C   0  0  0  0  0  0  0  0  0  0  0  0
  -14.3662   -0.6421    7.8254 C   0  0  0  0  0  0  0  0  0  0  0  0
  -14.6479   -0.1164   10.2675 C   0  0  0  0  0  0  0  0  0  0  0  0
  -13.9477   -0.3237   11.2469 O   0  0  0  0  0  0  0  0  0  0  0  0
  -15.9681   -0.4138   10.3514 O   0  0  0  0  0  0  0  0  0  0  0  0
  -12.8236    0.8964    8.9581 N   0  0  0  0  0  0  0  0  0  0  0  0
  -11.7293    0.1049    9.1977 C   0  0  0  0  0  0  0  0  0  0  0  0
  -10.6405    0.8534    8.8468 C   0  0  0  0  0  0  0  0  0  0  0  0
   -9.3739    0.3812    8.7907 N   0  0  0  0  0  0  0  0  0  0  0  0
   -8.0753    1.0454    8.2706 C   0  0  0  0  0  0  0  0  0  0  0  0
   -7.8830    2.1296    7.8818 O   0  0  0  0  0  0  0  0  0  0  0  0
   -7.0200   -0.0393    8.2500 C   0  0  0  0  0  0  0  0  0  0  0  0
   -7.1266   -0.9235    6.9964 C   0  0  0  0  0  0  0  0  0  0  0  0
   -5.7278   -1.4984    6.7348 C   0  0  0  0  0  0  0  0  0  0  0  0
   -5.7126   -2.3822    5.5050 C   0  0  0  0  0  0  0  0  0  0  0  0
   -6.7474   -3.4909    5.6128 C   0  0  0  0  0  0  0  0  0  0  0  0
   -8.1436   -2.9575    5.8765 C   0  0  0  0  0  0  0  0  0  0  0  0
   -8.1769   -2.0461    7.0968 C   0  0  0  0  0  0  0  0  0  0  0  0
  -11.1430    2.1107    8.4993 C   0  0  0  0  0  0  0  0  0  0  0  0
  -12.4769    2.1471    8.5637 N   0  0  0  0  0  0  0  0  0  0  0  0
  -16.2199    1.2546    8.4820 H   0  0  0  0  0  0  0  0  0  0  0  0
  -14.9270    2.0524    7.5945 H   0  0  0  0  0  0  0  0  0  0  0  0
  -15.1537    2.3796    9.3216 H   0  0  0  0  0  0  0  0  0  0  0  0
  -14.0803   -0.2552    6.8400 H   0  0  0  0  0  0  0  0  0  0  0  0
  -13.7280   -1.5086    8.0289 H   0  0  0  0  0  0  0  0  0  0  0  0
  -15.3969   -1.0076    7.7542 H   0  0  0  0  0  0  0  0  0  0  0  0
  -16.0683   -0.7761   11.2579 H   0  0  0  0  0  0  0  0  0  0  0  0
  -11.8272   -0.9248    9.5099 H   0  0  0  0  0  0  0  0  0  0  0  0
   -9.1662   -0.5514    9.1259 H   0  0  0  0  0  0  0  0  0  0  0  0
   -6.0556    0.4855    8.2670 H   0  0  0  0  0  0  0  0  0  0  0  0
   -7.0494   -0.6269    9.1682 H   0  0  0  0  0  0  0  0  0  0  0  0
   -7.3963   -0.2886    6.1407 H   0  0  0  0  0  0  0  0  0  0  0  0
   -5.3847   -2.0712    7.6016 H   0  0  0  0  0  0  0  0  0  0  0  0
   -5.0068   -0.6874    6.5892 H   0  0  0  0  0  0  0  0  0  0  0  0
   -5.9129   -1.7780    4.6116 H   0  0  0  0  0  0  0  0  0  0  0  0
   -4.7161   -2.8186    5.3768 H   0  0  0  0  0  0  0  0  0  0  0  0
   -6.7418   -4.0760    4.6875 H   0  0  0  0  0  0  0  0  0  0  0  0
   -6.4722   -4.1708    6.4250 H   0  0  0  0  0  0  0  0  0  0  0  0
   -8.4929   -2.4014    4.9977 H   0  0  0  0  0  0  0  0  0  0  0  0
   -8.8411   -3.7901    6.0222 H   0  0  0  0  0  0  0  0  0  0  0  0
   -8.0114   -2.6401    8.0013 H   0  0  0  0  0  0  0  0  0  0  0  0
   -9.1839   -1.6250    7.1713 H   0  0  0  0  0  0  0  0  0  0  0  0
  -10.6022    2.9891    8.1716 H   0  0  0  0  0  0  0  0  0  0  0  0
  1  2  1  0
  2  3  1  0
  2  4  1  0
  4  5  2  0
  4  6  1  0
  2  7  1  0
  7  8  1  0
  8  9  2  0
  9 10  1  0
 10 11  1  0
 11 12  2  0
 11 13  1  0
 13 14  1  0
 14 15  1  0
 15 16  1  0
 16 17  1  0
 17 18  1  0
 18 19  1  0
  9 20  1  0
 20 21  2  0
 21  7  1  0
 19 14  1  0
  1 22  1  0
  1 23  1  0
  1 24  1  0
  3 25  1  0
  3 26  1  0
  3 27  1  0
  6 28  1  0
  8 29  1  0
 10 30  1  0
 13 31  1  0
 13 32  1  0
 14 33  1  0
 15 34  1  0
 15 35  1  0
 16 36  1  0
 16 37  1  0
 17 38  1  0
 17 39  1  0
 18 40  1  0
 18 41  1  0
 19 42  1  0
 19 43  1  0
 20 44  1  0
M  END
>  <Energy>  (932) 
15.476339068673195

>  <compound_id>  (932) 
51169

>  <target_id>  (932) 
1

>  <reference_id>  (932) 
95

>  <inspiration_ids>  (932) 
[127, 95]

>  <energy_score>  (932) 
-63.56520994382828

>  <distance_score>  (932) 
2.378272083943064

>  <path>  (932) 
/opt/xchem-fragalysis-2/maxwin/BulkDock/SCRATCH/511025/C51169-P95/C51169-P95.minimised.mol

>  <scratch_subdir>  (932) 
/opt/xchem-fragalysis-2/maxwin/BulkDock/SCRATCH/511025/C51169-P95

>  <fragmenstein_runtime>  (932) 
32.345290660858154

>  <fragmenstein_outcome>  (932) 
too moved

>  <fragmenstein_mode>  (932) 
expansion

>  <fragmenstein_error>  (932) 


$$$$
C51172-P127
     RDKit          3D

 41 42  0  0  0  0  0  0  0  0999 V2000
  -15.1691    0.7443    8.7923 C   0  0  0  0  0  0  0  0  0  0  0  0
  -14.3278    2.0129    9.0501 C   0  0  0  0  0  0  0  0  0  0  0  0
  -14.6569    2.4963   10.4809 C   0  0  0  0  0  0  0  0  0  0  0  0
  -14.7223    3.0432    7.9972 C   0  0  0  0  0  0  0  0  0  0  0  0
  -14.3998    3.0511    6.8176 O   0  0  0  0  0  0  0  0  0  0  0  0
  -15.5959    3.9824    8.4252 O   0  0  0  0  0  0  0  0  0  0  0  0
  -12.8887    1.7396    8.9207 N   0  0  0  0  0  0  0  0  0  0  0  0
  -12.2971    0.7354    8.2093 C   0  0  0  0  0  0  0  0  0  0  0  0
  -10.9933    0.6964    8.6225 C   0  0  0  0  0  0  0  0  0  0  0  0
  -10.0884   -0.2506    8.2712 N   0  0  0  0  0  0  0  0  0  0  0  0
  -10.2214   -1.4682    7.3084 C   0  0  0  0  0  0  0  0  0  0  0  0
  -11.1050   -1.7925    6.6158 O   0  0  0  0  0  0  0  0  0  0  0  0
   -8.9134   -2.2324    7.4545 C   0  0  0  0  0  0  0  0  0  0  0  0
   -8.5421   -3.0582    6.2208 C   0  0  0  0  0  0  0  0  0  0  0  0
   -8.5583   -2.2549    4.9208 C   0  0  0  0  0  0  0  0  0  0  0  0
   -7.3019   -1.3987    4.9989 C   0  0  0  0  0  0  0  0  0  0  0  0
   -6.3011   -2.2194    5.8133 C   0  0  0  0  0  0  0  0  0  0  0  0
   -7.0655   -3.4510    6.2983 C   0  0  0  0  0  0  0  0  0  0  0  0
  -10.8433    1.7916    9.4814 C   0  0  0  0  0  0  0  0  0  0  0  0
  -11.9894    2.4590    9.6366 N   0  0  0  0  0  0  0  0  0  0  0  0
  -16.2349    0.9403    8.9617 H   0  0  0  0  0  0  0  0  0  0  0  0
  -14.8700   -0.0770    9.4539 H   0  0  0  0  0  0  0  0  0  0  0  0
  -15.0833    0.3957    7.7566 H   0  0  0  0  0  0  0  0  0  0  0  0
  -14.1968    3.4677   10.6979 H   0  0  0  0  0  0  0  0  0  0  0  0
  -14.3011    1.7815   11.2325 H   0  0  0  0  0  0  0  0  0  0  0  0
  -15.7370    2.6166   10.6265 H   0  0  0  0  0  0  0  0  0  0  0  0
  -15.7132    4.5622    7.6430 H   0  0  0  0  0  0  0  0  0  0  0  0
  -12.8438    0.0831    7.5414 H   0  0  0  0  0  0  0  0  0  0  0  0
   -9.2190   -0.3166    8.7815 H   0  0  0  0  0  0  0  0  0  0  0  0
   -8.1055   -1.5324    7.6943 H   0  0  0  0  0  0  0  0  0  0  0  0
   -9.0142   -2.9030    8.3142 H   0  0  0  0  0  0  0  0  0  0  0  0
   -9.1959   -3.9338    6.1505 H   0  0  0  0  0  0  0  0  0  0  0  0
   -9.4518   -1.6480    4.7599 H   0  0  0  0  0  0  0  0  0  0  0  0
   -8.4790   -2.9389    4.0661 H   0  0  0  0  0  0  0  0  0  0  0  0
   -7.5117   -0.4509    5.5079 H   0  0  0  0  0  0  0  0  0  0  0  0
   -6.9159   -1.1576    4.0034 H   0  0  0  0  0  0  0  0  0  0  0  0
   -5.9240   -1.6315    6.6576 H   0  0  0  0  0  0  0  0  0  0  0  0
   -5.4355   -2.5121    5.2095 H   0  0  0  0  0  0  0  0  0  0  0  0
   -6.8510   -4.2802    5.6208 H   0  0  0  0  0  0  0  0  0  0  0  0
   -6.7598   -3.7637    7.2968 H   0  0  0  0  0  0  0  0  0  0  0  0
   -9.9620    2.1332   10.0071 H   0  0  0  0  0  0  0  0  0  0  0  0
  1  2  1  0
  2  3  1  0
  2  4  1  0
  4  5  2  0
  4  6  1  0
  2  7  1  0
  7  8  1  0
  8  9  2  0
  9 10  1  0
 10 11  1  0
 11 12  2  0
 11 13  1  0
 13 14  1  0
 14 15  1  0
 15 16  1  0
 16 17  1  0
 17 18  1  0
  9 19  1  0
 19 20  2  0
 20  7  1  0
 18 14  1  0
  1 21  1  0
  1 22  1  0
  1 23  1  0
  3 24  1  0
  3 25  1  0
  3 26  1  0
  6 27  1  0
  8 28  1  0
 10 29  1  0
 13 30  1  0
 13 31  1  0
 14 32  1  0
 15 33  1  0
 15 34  1  0
 16 35  1  0
 16 36  1  0
 17 37  1  0
 17 38  1  0
 18 39  1  0
 18 40  1  0
 19 41  1  0
M  END
>  <Energy>  (933) 
24.553976113974635

>  <compound_id>  (933) 
51172

>  <target_id>  (933) 
1

>  <reference_id>  (933) 
127

>  <inspiration_ids>  (933) 
[127, 95]

>  <energy_score>  (933) 
-41.40258310240077

>  <distance_score>  (933) 
2.1188120309243588

>  <path>  (933) 
/opt/xchem-fragalysis-2/maxwin/BulkDock/SCRATCH/511025/C51172-P127/C51172-P127.minimised.mol

>  <scratch_subdir>  (933) 
/opt/xchem-fragalysis-2/maxwin/BulkDock/SCRATCH/511025/C51172-P127

>  <fragmenstein_runtime>  (933) 
18.476972103118896

>  <fragmenstein_outcome>  (933) 
too moved

>  <fragmenstein_mode>  (933) 
expansion

>  <fragmenstein_error>  (933) 


$$$$
C51172-P95
     RDKit          3D

 41 42  0  0  0  0  0  0  0  0999 V2000
  -14.9177    0.7488    8.7335 C   0  0  0  0  0  0  0  0  0  0  0  0
  -14.0525    1.2158    9.9169 C   0  0  0  0  0  0  0  0  0  0  0  0
  -14.3307    0.2998   11.1250 C   0  0  0  0  0  0  0  0  0  0  0  0
  -14.4610    2.6320   10.3159 C   0  0  0  0  0  0  0  0  0  0  0  0
  -15.2701    3.3523    9.7469 O   0  0  0  0  0  0  0  0  0  0  0  0
  -13.8799    3.0693   11.4570 O   0  0  0  0  0  0  0  0  0  0  0  0
  -12.6410    1.1746    9.5090 N   0  0  0  0  0  0  0  0  0  0  0  0
  -11.8633    0.0496    9.3917 C   0  0  0  0  0  0  0  0  0  0  0  0
  -10.6930    0.4594    8.8137 C   0  0  0  0  0  0  0  0  0  0  0  0
   -9.6719   -0.3486    8.4339 N   0  0  0  0  0  0  0  0  0  0  0  0
   -8.3590   -0.0230    7.6769 C   0  0  0  0  0  0  0  0  0  0  0  0
   -7.9901    0.9759    7.1964 O   0  0  0  0  0  0  0  0  0  0  0  0
   -7.5273   -1.2940    7.6068 C   0  0  0  0  0  0  0  0  0  0  0  0
   -8.2162   -2.5636    7.0694 C   0  0  0  0  0  0  0  0  0  0  0  0
   -9.1659   -2.3393    5.8923 C   0  0  0  0  0  0  0  0  0  0  0  0
   -8.2388   -2.1180    4.7098 C   0  0  0  0  0  0  0  0  0  0  0  0
   -6.9861   -2.9372    5.0198 C   0  0  0  0  0  0  0  0  0  0  0  0
   -7.1719   -3.4840    6.4333 C   0  0  0  0  0  0  0  0  0  0  0  0
  -10.8250    1.8455    8.6464 C   0  0  0  0  0  0  0  0  0  0  0  0
  -12.0214    2.2834    9.0456 N   0  0  0  0  0  0  0  0  0  0  0  0
  -14.6788   -0.2794    8.4379 H   0  0  0  0  0  0  0  0  0  0  0  0
  -14.7662    1.3859    7.8537 H   0  0  0  0  0  0  0  0  0  0  0  0
  -15.9846    0.7850    8.9832 H   0  0  0  0  0  0  0  0  0  0  0  0
  -15.3392    0.4643   11.5227 H   0  0  0  0  0  0  0  0  0  0  0  0
  -13.6210    0.4807   11.9411 H   0  0  0  0  0  0  0  0  0  0  0  0
  -14.2575   -0.7577   10.8549 H   0  0  0  0  0  0  0  0  0  0  0  0
  -14.1486    4.0093   11.5146 H   0  0  0  0  0  0  0  0  0  0  0  0
  -12.2242   -0.9307    9.6610 H   0  0  0  0  0  0  0  0  0  0  0  0
   -9.7040   -1.3403    8.6458 H   0  0  0  0  0  0  0  0  0  0  0  0
   -6.6536   -1.0466    6.9890 H   0  0  0  0  0  0  0  0  0  0  0  0
   -7.1229   -1.4784    8.6051 H   0  0  0  0  0  0  0  0  0  0  0  0
   -8.7299   -3.0778    7.8888 H   0  0  0  0  0  0  0  0  0  0  0  0
   -9.8708   -1.5151    6.0207 H   0  0  0  0  0  0  0  0  0  0  0  0
   -9.7584   -3.2481    5.7254 H   0  0  0  0  0  0  0  0  0  0  0  0
   -7.9779   -1.0574    4.6175 H   0  0  0  0  0  0  0  0  0  0  0  0
   -8.7048   -2.4258    3.7684 H   0  0  0  0  0  0  0  0  0  0  0  0
   -6.0956   -2.3014    4.9590 H   0  0  0  0  0  0  0  0  0  0  0  0
   -6.8480   -3.7514    4.3011 H   0  0  0  0  0  0  0  0  0  0  0  0
   -7.5587   -4.5080    6.3910 H   0  0  0  0  0  0  0  0  0  0  0  0
   -6.2253   -3.5102    6.9788 H   0  0  0  0  0  0  0  0  0  0  0  0
  -10.1168    2.5452    8.2204 H   0  0  0  0  0  0  0  0  0  0  0  0
  1  2  1  0
  2  3  1  0
  2  4  1  0
  4  5  2  0
  4  6  1  0
  2  7  1  0
  7  8  1  0
  8  9  2  0
  9 10  1  0
 10 11  1  0
 11 12  2  0
 11 13  1  0
 13 14  1  0
 14 15  1  0
 15 16  1  0
 16 17  1  0
 17 18  1  0
  9 19  1  0
 19 20  2  0
 20  7  1  0
 18 14  1  0
  1 21  1  0
  1 22  1  0
  1 23  1  0
  3 24  1  0
  3 25  1  0
  3 26  1  0
  6 27  1  0
  8 28  1  0
 10 29  1  0
 13 30  1  0
 13 31  1  0
 14 32  1  0
 15 33  1  0
 15 34  1  0
 16 35  1  0
 16 36  1  0
 17 37  1  0
 17 38  1  0
 18 39  1  0
 18 40  1  0
 19 41  1  0
M  END
>  <Energy>  (934) 
23.79190545688531

>  <compound_id>  (934) 
51172

>  <target_id>  (934) 
1

>  <reference_id>  (934) 
95

>  <inspiration_ids>  (934) 
[127, 95]

>  <energy_score>  (934) 
-42.16465375948849

>  <distance_score>  (934) 
2.224317471885994

>  <path>  (934) 
/opt/xchem-fragalysis-2/maxwin/BulkDock/SCRATCH/511025/C51172-P95/C51172-P95.minimised.mol

>  <scratch_subdir>  (934) 
/opt/xchem-fragalysis-2/maxwin/BulkDock/SCRATCH/511025/C51172-P95

>  <fragmenstein_runtime>  (934) 
20.89908480644226

>  <fragmenstein_outcome>  (934) 
too moved

>  <fragmenstein_mode>  (934) 
expansion

>  <fragmenstein_error>  (934) 


$$$$
C51173-P127
     RDKit          3D

 42 43  0  0  0  0  0  0  0  0999 V2000
  -14.9337    0.3981    9.6523 C   0  0  0  0  0  0  0  0  0  0  0  0
  -13.8375    1.3736   10.1244 C   0  0  0  0  0  0  0  0  0  0  0  0
  -13.4032    0.9996   11.5510 C   0  0  0  0  0  0  0  0  0  0  0  0
  -14.4634    2.7664   10.1255 C   0  0  0  0  0  0  0  0  0  0  0  0
  -14.6730    3.4792   11.0973 O   0  0  0  0  0  0  0  0  0  0  0  0
  -14.8846    3.1856    8.9085 O   0  0  0  0  0  0  0  0  0  0  0  0
  -12.6616    1.3450    9.2470 N   0  0  0  0  0  0  0  0  0  0  0  0
  -12.2471    0.3115    8.4482 C   0  0  0  0  0  0  0  0  0  0  0  0
  -11.1897    0.8017    7.7318 C   0  0  0  0  0  0  0  0  0  0  0  0
  -10.5572    0.1527    6.7235 N   0  0  0  0  0  0  0  0  0  0  0  0
   -9.4925    0.6538    5.7172 C   0  0  0  0  0  0  0  0  0  0  0  0
   -8.9391    1.6799    5.6492 O   0  0  0  0  0  0  0  0  0  0  0  0
   -9.1702   -0.5090    4.7932 C   0  0  0  0  0  0  0  0  0  0  0  0
   -8.0220   -1.3886    5.2990 C   0  0  0  0  0  0  0  0  0  0  0  0
   -8.4765   -2.5593    6.1886 C   0  0  0  0  0  0  0  0  0  0  0  0
   -7.2892   -3.3396    6.6670 C   0  0  0  0  0  0  0  0  0  0  0  0
   -6.0432   -2.8419    6.6672 C   0  0  0  0  0  0  0  0  0  0  0  0
   -5.6779   -1.4568    6.2498 C   0  0  0  0  0  0  0  0  0  0  0  0
   -6.9043   -0.5905    6.0121 C   0  0  0  0  0  0  0  0  0  0  0  0
  -10.9415    2.0788    8.2567 C   0  0  0  0  0  0  0  0  0  0  0  0
  -11.8203    2.4028    9.2072 N   0  0  0  0  0  0  0  0  0  0  0  0
  -15.8574    0.5369   10.2270 H   0  0  0  0  0  0  0  0  0  0  0  0
  -15.1838    0.5424    8.5946 H   0  0  0  0  0  0  0  0  0  0  0  0
  -14.6245   -0.6423    9.7855 H   0  0  0  0  0  0  0  0  0  0  0  0
  -12.6766    1.7178   11.9499 H   0  0  0  0  0  0  0  0  0  0  0  0
  -12.9322    0.0105   11.5783 H   0  0  0  0  0  0  0  0  0  0  0  0
  -14.2578    0.9853   12.2372 H   0  0  0  0  0  0  0  0  0  0  0  0
  -15.1573    4.1125    9.0732 H   0  0  0  0  0  0  0  0  0  0  0  0
  -12.7604   -0.6388    8.4063 H   0  0  0  0  0  0  0  0  0  0  0  0
  -10.7649   -0.8223    6.5394 H   0  0  0  0  0  0  0  0  0  0  0  0
   -8.8803   -0.0602    3.8333 H   0  0  0  0  0  0  0  0  0  0  0  0
  -10.0665   -1.1016    4.5779 H   0  0  0  0  0  0  0  0  0  0  0  0
   -7.5793   -1.8353    4.3948 H   0  0  0  0  0  0  0  0  0  0  0  0
   -9.0405   -2.2096    7.0595 H   0  0  0  0  0  0  0  0  0  0  0  0
   -9.1341   -3.2201    5.6122 H   0  0  0  0  0  0  0  0  0  0  0  0
   -7.4684   -4.3560    7.0069 H   0  0  0  0  0  0  0  0  0  0  0  0
   -5.2136   -3.4546    6.9973 H   0  0  0  0  0  0  0  0  0  0  0  0
   -5.0824   -1.5183    5.3309 H   0  0  0  0  0  0  0  0  0  0  0  0
   -5.0437   -0.9928    7.0136 H   0  0  0  0  0  0  0  0  0  0  0  0
   -7.2683   -0.2134    6.9769 H   0  0  0  0  0  0  0  0  0  0  0  0
   -6.6102    0.2795    5.4131 H   0  0  0  0  0  0  0  0  0  0  0  0
  -10.1681    2.7849    7.9826 H   0  0  0  0  0  0  0  0  0  0  0  0
  1  2  1  0
  2  3  1  0
  2  4  1  0
  4  5  2  0
  4  6  1  0
  2  7  1  0
  7  8  1  0
  8  9  2  0
  9 10  1  0
 10 11  1  0
 11 12  2  0
 11 13  1  0
 13 14  1  0
 14 15  1  0
 15 16  1  0
 16 17  2  0
 17 18  1  0
 18 19  1  0
  9 20  1  0
 20 21  2  0
 21  7  1  0
 19 14  1  0
  1 22  1  0
  1 23  1  0
  1 24  1  0
  3 25  1  0
  3 26  1  0
  3 27  1  0
  6 28  1  0
  8 29  1  0
 10 30  1  0
 13 31  1  0
 13 32  1  0
 14 33  1  0
 15 34  1  0
 15 35  1  0
 16 36  1  0
 17 37  1  0
 18 38  1  0
 18 39  1  0
 19 40  1  0
 19 41  1  0
 20 42  1  0
M  END
>  <Energy>  (935) 
22.55771308629096

>  <compound_id>  (935) 
51173

>  <target_id>  (935) 
1

>  <reference_id>  (935) 
127

>  <inspiration_ids>  (935) 
[127, 95]

>  <energy_score>  (935) 
-53.92774474897311

>  <distance_score>  (935) 
2.1219250950596815

>  <path>  (935) 
/opt/xchem-fragalysis-2/maxwin/BulkDock/SCRATCH/511025/C51173-P127/C51173-P127.minimised.mol

>  <scratch_subdir>  (935) 
/opt/xchem-fragalysis-2/maxwin/BulkDock/SCRATCH/511025/C51173-P127

>  <fragmenstein_runtime>  (935) 
38.880003213882446

>  <fragmenstein_outcome>  (935) 
too moved

>  <fragmenstein_mode>  (935) 
expansion

>  <fragmenstein_error>  (935) 


$$$$
C51173-P95
     RDKit          3D

 42 43  0  0  0  0  0  0  0  0999 V2000
  -14.8341    0.3347    8.4782 C   0  0  0  0  0  0  0  0  0  0  0  0
  -14.1951    1.1226    9.6321 C   0  0  0  0  0  0  0  0  0  0  0  0
  -14.3716    0.3177   10.9354 C   0  0  0  0  0  0  0  0  0  0  0  0
  -14.8968    2.4609    9.8718 C   0  0  0  0  0  0  0  0  0  0  0  0
  -14.7779    3.1752   10.8595 O   0  0  0  0  0  0  0  0  0  0  0  0
  -15.7553    2.8421    8.9005 O   0  0  0  0  0  0  0  0  0  0  0  0
  -12.7760    1.3493    9.3201 N   0  0  0  0  0  0  0  0  0  0  0  0
  -11.7481    0.4473    9.4479 C   0  0  0  0  0  0  0  0  0  0  0  0
  -10.6399    1.0684    8.9370 C   0  0  0  0  0  0  0  0  0  0  0  0
   -9.3973    0.5345    8.8412 N   0  0  0  0  0  0  0  0  0  0  0  0
   -8.1158    1.0829    8.1625 C   0  0  0  0  0  0  0  0  0  0  0  0
   -7.9124    2.1121    7.6485 O   0  0  0  0  0  0  0  0  0  0  0  0
   -7.0696   -0.0037    8.2451 C   0  0  0  0  0  0  0  0  0  0  0  0
   -7.1293   -0.9437    7.0357 C   0  0  0  0  0  0  0  0  0  0  0  0
   -8.1603   -2.0815    7.1880 C   0  0  0  0  0  0  0  0  0  0  0  0
   -7.9199   -3.2120    6.2374 C   0  0  0  0  0  0  0  0  0  0  0  0
   -6.8042   -3.3307    5.5061 C   0  0  0  0  0  0  0  0  0  0  0  0
   -5.6507   -2.3836    5.5858 C   0  0  0  0  0  0  0  0  0  0  0  0
   -5.7140   -1.4960    6.8161 C   0  0  0  0  0  0  0  0  0  0  0  0
  -11.0773    2.3294    8.5167 C   0  0  0  0  0  0  0  0  0  0  0  0
  -12.3876    2.4905    8.7075 N   0  0  0  0  0  0  0  0  0  0  0  0
  -15.9019    0.1622    8.6558 H   0  0  0  0  0  0  0  0  0  0  0  0
  -14.7393    0.8687    7.5250 H   0  0  0  0  0  0  0  0  0  0  0  0
  -14.3560   -0.6430    8.3465 H   0  0  0  0  0  0  0  0  0  0  0  0
  -13.8197    0.7726   11.7667 H   0  0  0  0  0  0  0  0  0  0  0  0
  -14.0162   -0.7104   10.8272 H   0  0  0  0  0  0  0  0  0  0  0  0
  -15.4269    0.2678   11.2297 H   0  0  0  0  0  0  0  0  0  0  0  0
  -16.0235    3.7426    9.1790 H   0  0  0  0  0  0  0  0  0  0  0  0
  -11.8944   -0.5417    9.8569 H   0  0  0  0  0  0  0  0  0  0  0  0
   -9.2508   -0.4307    9.1115 H   0  0  0  0  0  0  0  0  0  0  0  0
   -7.1330   -0.5411    9.1921 H   0  0  0  0  0  0  0  0  0  0  0  0
   -6.1057    0.5216    8.2754 H   0  0  0  0  0  0  0  0  0  0  0  0
   -7.4006   -0.3600    6.1439 H   0  0  0  0  0  0  0  0  0  0  0  0
   -8.1515   -2.4826    8.2056 H   0  0  0  0  0  0  0  0  0  0  0  0
   -9.1655   -1.6811    7.0123 H   0  0  0  0  0  0  0  0  0  0  0  0
   -8.7104   -3.9542    6.1405 H   0  0  0  0  0  0  0  0  0  0  0  0
   -6.7056   -4.1671    4.8205 H   0  0  0  0  0  0  0  0  0  0  0  0
   -5.6395   -1.7697    4.6774 H   0  0  0  0  0  0  0  0  0  0  0  0
   -4.7122   -2.9480    5.6014 H   0  0  0  0  0  0  0  0  0  0  0  0
   -5.3922   -2.0611    7.6950 H   0  0  0  0  0  0  0  0  0  0  0  0
   -4.9945   -0.6800    6.6928 H   0  0  0  0  0  0  0  0  0  0  0  0
  -10.5063    3.1249    8.0552 H   0  0  0  0  0  0  0  0  0  0  0  0
  1  2  1  0
  2  3  1  0
  2  4  1  0
  4  5  2  0
  4  6  1  0
  2  7  1  0
  7  8  1  0
  8  9  2  0
  9 10  1  0
 10 11  1  0
 11 12  2  0
 11 13  1  0
 13 14  1  0
 14 15  1  0
 15 16  1  0
 16 17  2  0
 17 18  1  0
 18 19  1  0
  9 20  1  0
 20 21  2  0
 21  7  1  0
 19 14  1  0
  1 22  1  0
  1 23  1  0
  1 24  1  0
  3 25  1  0
  3 26  1  0
  3 27  1  0
  6 28  1  0
  8 29  1  0
 10 30  1  0
 13 31  1  0
 13 32  1  0
 14 33  1  0
 15 34  1  0
 15 35  1  0
 16 36  1  0
 17 37  1  0
 18 38  1  0
 18 39  1  0
 19 40  1  0
 19 41  1  0
 20 42  1  0
M  END
>  <Energy>  (936) 
20.49686896309154

>  <compound_id>  (936) 
51173

>  <target_id>  (936) 
1

>  <reference_id>  (936) 
95

>  <inspiration_ids>  (936) 
[127, 95]

>  <energy_score>  (936) 
-55.988588872172045

>  <distance_score>  (936) 
2.2491449998635518

>  <path>  (936) 
/opt/xchem-fragalysis-2/maxwin/BulkDock/SCRATCH/511025/C51173-P95/C51173-P95.minimised.mol

>  <scratch_subdir>  (936) 
/opt/xchem-fragalysis-2/maxwin/BulkDock/SCRATCH/511025/C51173-P95

>  <fragmenstein_runtime>  (936) 
28.50712561607361

>  <fragmenstein_outcome>  (936) 
too moved

>  <fragmenstein_mode>  (936) 
expansion

>  <fragmenstein_error>  (936) 


$$$$
C51174-P127
     RDKit          3D

 45 46  0  0  0  0  0  0  0  0999 V2000
  -15.8440   -0.0184   10.6464 C   0  0  0  0  0  0  0  0  0  0  0  0
  -15.1995    1.3223   11.0490 C   0  0  0  0  0  0  0  0  0  0  0  0
  -14.6872    1.1982   12.4962 C   0  0  0  0  0  0  0  0  0  0  0  0
  -16.2878    2.4085   11.0302 C   0  0  0  0  0  0  0  0  0  0  0  0
  -17.4885    2.1673   11.1111 O   0  0  0  0  0  0  0  0  0  0  0  0
  -15.8491    3.6911   10.9857 O   0  0  0  0  0  0  0  0  0  0  0  0
  -14.0853    1.6903   10.1610 N   0  0  0  0  0  0  0  0  0  0  0  0
  -13.5413    0.9950    9.1166 C   0  0  0  0  0  0  0  0  0  0  0  0
  -12.5151    1.7687    8.6347 C   0  0  0  0  0  0  0  0  0  0  0  0
  -11.7163    1.4473    7.5813 N   0  0  0  0  0  0  0  0  0  0  0  0
  -10.6176    2.1585    6.9767 C   0  0  0  0  0  0  0  0  0  0  0  0
  -10.0744    3.1800    7.2958 O   0  0  0  0  0  0  0  0  0  0  0  0
  -10.1764    1.4492    5.6827 C   0  0  0  0  0  0  0  0  0  0  0  0
   -9.8358    0.0586    5.8748 N   0  0  0  0  0  0  0  0  0  0  0  0
  -10.6625   -1.0924    6.0593 C   0  0  0  0  0  0  0  0  0  0  0  0
  -11.8479   -1.1891    6.1812 O   0  0  0  0  0  0  0  0  0  0  0  0
   -9.8175   -2.3803    6.0722 C   0  0  0  0  0  0  0  0  0  0  0  0
   -8.7484   -2.4324    7.1729 C   0  0  0  0  0  0  0  0  0  0  0  0
   -7.5205   -3.0400    6.5107 C   0  0  0  0  0  0  0  0  0  0  0  0
   -7.5938   -2.5411    5.0801 C   0  0  0  0  0  0  0  0  0  0  0  0
   -9.0784   -2.6002    4.7440 C   0  0  0  0  0  0  0  0  0  0  0  0
  -12.4966    2.9100    9.4503 C   0  0  0  0  0  0  0  0  0  0  0  0
  -13.4685    2.8870   10.3687 N   0  0  0  0  0  0  0  0  0  0  0  0
  -16.6623   -0.2908   11.3236 H   0  0  0  0  0  0  0  0  0  0  0  0
  -15.1160   -0.8344   10.6766 H   0  0  0  0  0  0  0  0  0  0  0  0
  -16.2642    0.0264    9.6347 H   0  0  0  0  0  0  0  0  0  0  0  0
  -15.4871    0.8785   13.1743 H   0  0  0  0  0  0  0  0  0  0  0  0
  -14.3103    2.1541   12.8789 H   0  0  0  0  0  0  0  0  0  0  0  0
  -13.8696    0.4721   12.5657 H   0  0  0  0  0  0  0  0  0  0  0  0
  -14.8612    3.7471   10.8803 H   0  0  0  0  0  0  0  0  0  0  0  0
  -13.9064    0.0270    8.7987 H   0  0  0  0  0  0  0  0  0  0  0  0
  -11.8581    0.5684    7.0837 H   0  0  0  0  0  0  0  0  0  0  0  0
  -10.9940    1.5119    4.9573 H   0  0  0  0  0  0  0  0  0  0  0  0
   -9.2946    1.9540    5.2769 H   0  0  0  0  0  0  0  0  0  0  0  0
   -8.8814   -0.2419    5.7265 H   0  0  0  0  0  0  0  0  0  0  0  0
  -10.5174   -3.2141    6.2181 H   0  0  0  0  0  0  0  0  0  0  0  0
   -9.0741   -3.0462    8.0185 H   0  0  0  0  0  0  0  0  0  0  0  0
   -8.5131   -1.4410    7.5749 H   0  0  0  0  0  0  0  0  0  0  0  0
   -7.5835   -4.1339    6.5375 H   0  0  0  0  0  0  0  0  0  0  0  0
   -6.5916   -2.7428    7.0053 H   0  0  0  0  0  0  0  0  0  0  0  0
   -6.9912   -3.1477    4.3978 H   0  0  0  0  0  0  0  0  0  0  0  0
   -7.2289   -1.5095    5.0203 H   0  0  0  0  0  0  0  0  0  0  0  0
   -9.3329   -3.5915    4.3549 H   0  0  0  0  0  0  0  0  0  0  0  0
   -9.3417   -1.8791    3.9632 H   0  0  0  0  0  0  0  0  0  0  0  0
  -11.8253    3.7592    9.4049 H   0  0  0  0  0  0  0  0  0  0  0  0
  1  2  1  0
  2  3  1  0
  2  4  1  0
  4  5  2  0
  4  6  1  0
  2  7  1  0
  7  8  1  0
  8  9  2  0
  9 10  1  0
 10 11  1  0
 11 12  2  0
 11 13  1  0
 13 14  1  0
 14 15  1  0
 15 16  2  0
 15 17  1  0
 17 18  1  0
 18 19  1  0
 19 20  1  0
 20 21  1  0
  9 22  1  0
 22 23  2  0
 23  7  1  0
 21 17  1  0
  1 24  1  0
  1 25  1  0
  1 26  1  0
  3 27  1  0
  3 28  1  0
  3 29  1  0
  6 30  1  0
  8 31  1  0
 10 32  1  0
 13 33  1  0
 13 34  1  0
 14 35  1  0
 17 36  1  0
 18 37  1  0
 18 38  1  0
 19 39  1  0
 19 40  1  0
 20 41  1  0
 20 42  1  0
 21 43  1  0
 21 44  1  0
 22 45  1  0
M  END
>  <Energy>  (937) 
14.384142710686014

>  <compound_id>  (937) 
51174

>  <target_id>  (937) 
1

>  <reference_id>  (937) 
127

>  <inspiration_ids>  (937) 
[127, 95]

>  <energy_score>  (937) 
-77.30209393688003

>  <distance_score>  (937) 
2.612564112911035

>  <path>  (937) 
/opt/xchem-fragalysis-2/maxwin/BulkDock/SCRATCH/511025/C51174-P127/C51174-P127.minimised.mol

>  <scratch_subdir>  (937) 
/opt/xchem-fragalysis-2/maxwin/BulkDock/SCRATCH/511025/C51174-P127

>  <fragmenstein_runtime>  (937) 
15.201649188995361

>  <fragmenstein_outcome>  (937) 
too moved

>  <fragmenstein_mode>  (937) 
expansion

>  <fragmenstein_error>  (937) 


$$$$
C51174-P95
     RDKit          3D

 45 46  0  0  0  0  0  0  0  0999 V2000
  -14.8943    1.5236   11.2557 C   0  0  0  0  0  0  0  0  0  0  0  0
  -14.2458    2.3055   10.0923 C   0  0  0  0  0  0  0  0  0  0  0  0
  -13.3295    3.3898   10.6863 C   0  0  0  0  0  0  0  0  0  0  0  0
  -15.3998    2.9039    9.2892 C   0  0  0  0  0  0  0  0  0  0  0  0
  -16.3981    2.3152    8.8978 O   0  0  0  0  0  0  0  0  0  0  0  0
  -15.2657    4.2135    8.9883 O   0  0  0  0  0  0  0  0  0  0  0  0
  -13.4455    1.4257    9.2274 N   0  0  0  0  0  0  0  0  0  0  0  0
  -13.1545    1.5962    7.8981 C   0  0  0  0  0  0  0  0  0  0  0  0
  -12.3110    0.5729    7.5471 C   0  0  0  0  0  0  0  0  0  0  0  0
  -11.7310    0.3504    6.3313 N   0  0  0  0  0  0  0  0  0  0  0  0
  -11.6625    1.2520    5.0641 C   0  0  0  0  0  0  0  0  0  0  0  0
  -12.1583    2.2894    4.8436 O   0  0  0  0  0  0  0  0  0  0  0  0
  -10.7091    0.5673    4.0536 C   0  0  0  0  0  0  0  0  0  0  0  0
   -9.8615   -0.4960    4.5588 N   0  0  0  0  0  0  0  0  0  0  0  0
   -9.3664   -1.7955    3.8790 C   0  0  0  0  0  0  0  0  0  0  0  0
   -9.6256   -2.2491    2.8352 O   0  0  0  0  0  0  0  0  0  0  0  0
   -8.4792   -2.5666    4.8655 C   0  0  0  0  0  0  0  0  0  0  0  0
   -7.2486   -1.8114    5.3746 C   0  0  0  0  0  0  0  0  0  0  0  0
   -7.4635   -1.6256    6.8672 C   0  0  0  0  0  0  0  0  0  0  0  0
   -8.2916   -2.8320    7.2589 C   0  0  0  0  0  0  0  0  0  0  0  0
   -9.2548   -3.0278    6.1040 C   0  0  0  0  0  0  0  0  0  0  0  0
  -12.1293   -0.1573    8.7324 C   0  0  0  0  0  0  0  0  0  0  0  0
  -12.7641    0.3919    9.7706 N   0  0  0  0  0  0  0  0  0  0  0  0
  -15.5685    2.1664   11.8343 H   0  0  0  0  0  0  0  0  0  0  0  0
  -14.1437    1.1250   11.9482 H   0  0  0  0  0  0  0  0  0  0  0  0
  -15.4854    0.6760   10.8879 H   0  0  0  0  0  0  0  0  0  0  0  0
  -12.8336    3.9736    9.9016 H   0  0  0  0  0  0  0  0  0  0  0  0
  -12.5404    2.9488   11.3069 H   0  0  0  0  0  0  0  0  0  0  0  0
  -13.8949    4.0902   11.3119 H   0  0  0  0  0  0  0  0  0  0  0  0
  -16.0607    4.4159    8.4501 H   0  0  0  0  0  0  0  0  0  0  0  0
  -13.5514    2.4186    7.3191 H   0  0  0  0  0  0  0  0  0  0  0  0
  -11.2491   -0.5217    6.1526 H   0  0  0  0  0  0  0  0  0  0  0  0
  -10.0351    1.3345    3.6593 H   0  0  0  0  0  0  0  0  0  0  0  0
  -11.3050    0.1653    3.2288 H   0  0  0  0  0  0  0  0  0  0  0  0
   -9.4972   -0.4479    5.5022 H   0  0  0  0  0  0  0  0  0  0  0  0
   -8.1196   -3.4484    4.3197 H   0  0  0  0  0  0  0  0  0  0  0  0
   -7.0789   -0.8566    4.8672 H   0  0  0  0  0  0  0  0  0  0  0  0
   -6.3543   -2.4267    5.2136 H   0  0  0  0  0  0  0  0  0  0  0  0
   -8.0189   -0.7025    7.0663 H   0  0  0  0  0  0  0  0  0  0  0  0
   -6.5196   -1.5727    7.4177 H   0  0  0  0  0  0  0  0  0  0  0  0
   -8.8108   -2.6884    8.2093 H   0  0  0  0  0  0  0  0  0  0  0  0
   -7.6498   -3.7161    7.3521 H   0  0  0  0  0  0  0  0  0  0  0  0
  -10.1682   -2.4508    6.2737 H   0  0  0  0  0  0  0  0  0  0  0  0
   -9.5606   -4.0758    6.0186 H   0  0  0  0  0  0  0  0  0  0  0  0
  -11.5313   -1.0441    8.8961 H   0  0  0  0  0  0  0  0  0  0  0  0
  1  2  1  0
  2  3  1  0
  2  4  1  0
  4  5  2  0
  4  6  1  0
  2  7  1  0
  7  8  1  0
  8  9  2  0
  9 10  1  0
 10 11  1  0
 11 12  2  0
 11 13  1  0
 13 14  1  0
 14 15  1  0
 15 16  2  0
 15 17  1  0
 17 18  1  0
 18 19  1  0
 19 20  1  0
 20 21  1  0
  9 22  1  0
 22 23  2  0
 23  7  1  0
 21 17  1  0
  1 24  1  0
  1 25  1  0
  1 26  1  0
  3 27  1  0
  3 28  1  0
  3 29  1  0
  6 30  1  0
  8 31  1  0
 10 32  1  0
 13 33  1  0
 13 34  1  0
 14 35  1  0
 17 36  1  0
 18 37  1  0
 18 38  1  0
 19 39  1  0
 19 40  1  0
 20 41  1  0
 20 42  1  0
 21 43  1  0
 21 44  1  0
 22 45  1  0
M  END
>  <Energy>  (938) 
44.879944216192619

>  <compound_id>  (938) 
51174

>  <target_id>  (938) 
1

>  <reference_id>  (938) 
95

>  <inspiration_ids>  (938) 
[127, 95]

>  <energy_score>  (938) 
-25.943623291384

>  <distance_score>  (938) 
2.9743375258056455

>  <path>  (938) 
/opt/xchem-fragalysis-2/maxwin/BulkDock/SCRATCH/511025/C51174-P95/C51174-P95.minimised.mol

>  <scratch_subdir>  (938) 
/opt/xchem-fragalysis-2/maxwin/BulkDock/SCRATCH/511025/C51174-P95

>  <fragmenstein_runtime>  (938) 
13.705491542816162

>  <fragmenstein_outcome>  (938) 
too moved

>  <fragmenstein_mode>  (938) 
expansion

>  <fragmenstein_error>  (938) 


$$$$
C51175-P127
     RDKit          3D

 44 45  0  0  0  0  0  0  0  0999 V2000
  -16.1506    1.0007    6.4995 C   0  0  0  0  0  0  0  0  0  0  0  0
  -15.8370   -0.3847    7.1125 C   0  0  0  0  0  0  0  0  0  0  0  0
  -17.1797   -1.0219    7.5108 C   0  0  0  0  0  0  0  0  0  0  0  0
  -15.1389   -1.1932    6.0057 C   0  0  0  0  0  0  0  0  0  0  0  0
  -14.2742   -0.7718    5.2490 O   0  0  0  0  0  0  0  0  0  0  0  0
  -15.5355   -2.4803    5.8679 O   0  0  0  0  0  0  0  0  0  0  0  0
  -14.9493   -0.1852    8.2815 N   0  0  0  0  0  0  0  0  0  0  0  0
  -13.5872   -0.3223    8.2970 C   0  0  0  0  0  0  0  0  0  0  0  0
  -13.1177    0.5293    9.2556 C   0  0  0  0  0  0  0  0  0  0  0  0
  -11.8064    0.8837    9.3742 N   0  0  0  0  0  0  0  0  0  0  0  0
  -10.5468    0.3869    8.5921 C   0  0  0  0  0  0  0  0  0  0  0  0
  -10.4388   -0.4533    7.7865 O   0  0  0  0  0  0  0  0  0  0  0  0
   -9.4037    1.2679    9.0076 C   0  0  0  0  0  0  0  0  0  0  0  0
   -8.2107    1.4643    7.6928 S   0  0  0  0  0  0  0  0  0  0  0  0
   -8.8637    1.5141    6.3998 O   0  0  0  0  0  0  0  0  0  0  0  0
   -7.3782    2.5983    8.0679 O   0  0  0  0  0  0  0  0  0  0  0  0
   -7.1481    0.0321    7.7874 C   0  0  0  0  0  0  0  0  0  0  0  0
   -5.8102    0.2527    7.0675 C   0  0  0  0  0  0  0  0  0  0  0  0
   -5.2544   -1.1508    6.9479 C   0  0  0  0  0  0  0  0  0  0  0  0
   -6.4752   -1.9864    6.6008 C   0  0  0  0  0  0  0  0  0  0  0  0
   -7.6890   -1.2487    7.1683 C   0  0  0  0  0  0  0  0  0  0  0  0
  -14.2701    0.9609    9.9305 C   0  0  0  0  0  0  0  0  0  0  0  0
  -15.3964    0.4999    9.3706 N   0  0  0  0  0  0  0  0  0  0  0  0
  -16.7089    1.6359    7.1970 H   0  0  0  0  0  0  0  0  0  0  0  0
  -15.2336    1.5394    6.2310 H   0  0  0  0  0  0  0  0  0  0  0  0
  -16.7505    0.9008    5.5878 H   0  0  0  0  0  0  0  0  0  0  0  0
  -17.6945   -0.4407    8.2840 H   0  0  0  0  0  0  0  0  0  0  0  0
  -17.0602   -2.0376    7.8903 H   0  0  0  0  0  0  0  0  0  0  0  0
  -17.8530   -1.0876    6.6484 H   0  0  0  0  0  0  0  0  0  0  0  0
  -14.8546   -2.8585    5.2445 H   0  0  0  0  0  0  0  0  0  0  0  0
  -13.0552   -0.8857    7.5412 H   0  0  0  0  0  0  0  0  0  0  0  0
  -11.5291    1.5753   10.0594 H   0  0  0  0  0  0  0  0  0  0  0  0
   -8.9054    0.8397    9.8785 H   0  0  0  0  0  0  0  0  0  0  0  0
   -9.7517    2.2785    9.2419 H   0  0  0  0  0  0  0  0  0  0  0  0
   -6.9354   -0.1234    8.8501 H   0  0  0  0  0  0  0  0  0  0  0  0
   -5.9672    0.6901    6.0739 H   0  0  0  0  0  0  0  0  0  0  0  0
   -5.1376    0.9130    7.6219 H   0  0  0  0  0  0  0  0  0  0  0  0
   -4.4672   -1.2282    6.1923 H   0  0  0  0  0  0  0  0  0  0  0  0
   -4.8344   -1.4698    7.9078 H   0  0  0  0  0  0  0  0  0  0  0  0
   -6.3931   -3.0056    6.9905 H   0  0  0  0  0  0  0  0  0  0  0  0
   -6.5747   -2.0676    5.5115 H   0  0  0  0  0  0  0  0  0  0  0  0
   -8.4000   -1.0584    6.3580 H   0  0  0  0  0  0  0  0  0  0  0  0
   -8.2007   -1.8612    7.9179 H   0  0  0  0  0  0  0  0  0  0  0  0
  -14.3491    1.6221   10.7825 H   0  0  0  0  0  0  0  0  0  0  0  0
  1  2  1  0
  2  3  1  0
  2  4  1  0
  4  5  2  0
  4  6  1  0
  2  7  1  0
  7  8  1  0
  8  9  2  0
  9 10  1  0
 10 11  1  0
 11 12  2  0
 11 13  1  0
 13 14  1  0
 14 15  2  0
 14 16  2  0
 14 17  1  0
 17 18  1  0
 18 19  1  0
 19 20  1  0
 20 21  1  0
  9 22  1  0
 22 23  2  0
 23  7  1  0
 21 17  1  0
  1 24  1  0
  1 25  1  0
  1 26  1  0
  3 27  1  0
  3 28  1  0
  3 29  1  0
  6 30  1  0
  8 31  1  0
 10 32  1  0
 13 33  1  0
 13 34  1  0
 17 35  1  0
 18 36  1  0
 18 37  1  0
 19 38  1  0
 19 39  1  0
 20 40  1  0
 20 41  1  0
 21 42  1  0
 21 43  1  0
 22 44  1  0
M  END
>  <Energy>  (939) 
9.8012301744671539

>  <compound_id>  (939) 
51175

>  <target_id>  (939) 
1

>  <reference_id>  (939) 
127

>  <inspiration_ids>  (939) 
[127, 95]

>  <energy_score>  (939) 
-53.4190953905578

>  <distance_score>  (939) 
2.963717168853527

>  <path>  (939) 
/opt/xchem-fragalysis-2/maxwin/BulkDock/SCRATCH/511025/C51175-P127/C51175-P127.minimised.mol

>  <scratch_subdir>  (939) 
/opt/xchem-fragalysis-2/maxwin/BulkDock/SCRATCH/511025/C51175-P127

>  <fragmenstein_runtime>  (939) 
5.341454267501831

>  <fragmenstein_outcome>  (939) 
too moved

>  <fragmenstein_mode>  (939) 
expansion

>  <fragmenstein_error>  (939) 


$$$$
C51175-P95
     RDKit          3D

 44 45  0  0  0  0  0  0  0  0999 V2000
  -15.5689    1.1814    6.8658 C   0  0  0  0  0  0  0  0  0  0  0  0
  -15.2252   -0.1831    7.5248 C   0  0  0  0  0  0  0  0  0  0  0  0
  -16.5412   -0.9443    7.7284 C   0  0  0  0  0  0  0  0  0  0  0  0
  -14.3486   -0.9370    6.5096 C   0  0  0  0  0  0  0  0  0  0  0  0
  -14.2593   -0.6643    5.3173 O   0  0  0  0  0  0  0  0  0  0  0  0
  -13.6960   -2.0065    7.0013 O   0  0  0  0  0  0  0  0  0  0  0  0
  -14.5555    0.0775    8.8239 N   0  0  0  0  0  0  0  0  0  0  0  0
  -13.2378   -0.1426    9.1297 C   0  0  0  0  0  0  0  0  0  0  0  0
  -12.8179    0.9981    9.7559 C   0  0  0  0  0  0  0  0  0  0  0  0
  -11.5095    1.3735    9.8018 N   0  0  0  0  0  0  0  0  0  0  0  0
  -10.2220    0.6036    9.3827 C   0  0  0  0  0  0  0  0  0  0  0  0
  -10.0852   -0.4943    9.0085 O   0  0  0  0  0  0  0  0  0  0  0  0
   -9.0679    1.5559    9.4214 C   0  0  0  0  0  0  0  0  0  0  0  0
   -8.1118    1.4076    7.9218 S   0  0  0  0  0  0  0  0  0  0  0  0
   -8.9967    1.4961    6.7768 O   0  0  0  0  0  0  0  0  0  0  0  0
   -7.0423    2.3918    8.0301 O   0  0  0  0  0  0  0  0  0  0  0  0
   -7.3166   -0.2094    7.9861 C   0  0  0  0  0  0  0  0  0  0  0  0
   -5.8871   -0.1489    7.4107 C   0  0  0  0  0  0  0  0  0  0  0  0
   -5.6653   -1.4904    6.7464 C   0  0  0  0  0  0  0  0  0  0  0  0
   -7.0229   -1.7707    6.1383 C   0  0  0  0  0  0  0  0  0  0  0  0
   -8.0181   -1.3174    7.1983 C   0  0  0  0  0  0  0  0  0  0  0  0
  -14.0055    1.6322   10.1466 C   0  0  0  0  0  0  0  0  0  0  0  0
  -15.0906    1.0089    9.6671 N   0  0  0  0  0  0  0  0  0  0  0  0
  -16.2571    1.7743    7.4793 H   0  0  0  0  0  0  0  0  0  0  0  0
  -14.6644    1.7811    6.7058 H   0  0  0  0  0  0  0  0  0  0  0  0
  -16.0510    1.0468    5.8900 H   0  0  0  0  0  0  0  0  0  0  0  0
  -17.2328   -0.3896    8.3730 H   0  0  0  0  0  0  0  0  0  0  0  0
  -16.3858   -1.9194    8.1885 H   0  0  0  0  0  0  0  0  0  0  0  0
  -17.0460   -1.1214    6.7714 H   0  0  0  0  0  0  0  0  0  0  0  0
  -13.2251   -2.4538    6.2503 H   0  0  0  0  0  0  0  0  0  0  0  0
  -12.6606   -0.9400    8.6836 H   0  0  0  0  0  0  0  0  0  0  0  0
  -11.2576    2.2881   10.1539 H   0  0  0  0  0  0  0  0  0  0  0  0
   -8.4233    1.2992   10.2593 H   0  0  0  0  0  0  0  0  0  0  0  0
   -9.3770    2.6010    9.4917 H   0  0  0  0  0  0  0  0  0  0  0  0
   -7.2493   -0.4723    9.0455 H   0  0  0  0  0  0  0  0  0  0  0  0
   -5.8174    0.6330    6.6468 H   0  0  0  0  0  0  0  0  0  0  0  0
   -5.1425    0.0589    8.1851 H   0  0  0  0  0  0  0  0  0  0  0  0
   -4.8695   -1.4592    5.9967 H   0  0  0  0  0  0  0  0  0  0  0  0
   -5.4090   -2.2528    7.4854 H   0  0  0  0  0  0  0  0  0  0  0  0
   -7.1512   -2.8252    5.8764 H   0  0  0  0  0  0  0  0  0  0  0  0
   -7.1565   -1.1782    5.2250 H   0  0  0  0  0  0  0  0  0  0  0  0
   -8.9667   -1.0269    6.7396 H   0  0  0  0  0  0  0  0  0  0  0  0
   -8.2276   -2.1585    7.8708 H   0  0  0  0  0  0  0  0  0  0  0  0
  -14.1386    2.5377   10.7223 H   0  0  0  0  0  0  0  0  0  0  0  0
  1  2  1  0
  2  3  1  0
  2  4  1  0
  4  5  2  0
  4  6  1  0
  2  7  1  0
  7  8  1  0
  8  9  2  0
  9 10  1  0
 10 11  1  0
 11 12  2  0
 11 13  1  0
 13 14  1  0
 14 15  2  0
 14 16  2  0
 14 17  1  0
 17 18  1  0
 18 19  1  0
 19 20  1  0
 20 21  1  0
  9 22  1  0
 22 23  2  0
 23  7  1  0
 21 17  1  0
  1 24  1  0
  1 25  1  0
  1 26  1  0
  3 27  1  0
  3 28  1  0
  3 29  1  0
  6 30  1  0
  8 31  1  0
 10 32  1  0
 13 33  1  0
 13 34  1  0
 17 35  1  0
 18 36  1  0
 18 37  1  0
 19 38  1  0
 19 39  1  0
 20 40  1  0
 20 41  1  0
 21 42  1  0
 21 43  1  0
 22 44  1  0
M  END
>  <Energy>  (940) 
15.834057982064733

>  <compound_id>  (940) 
51175

>  <target_id>  (940) 
1

>  <reference_id>  (940) 
95

>  <inspiration_ids>  (940) 
[127, 95]

>  <energy_score>  (940) 
-47.38626758296033

>  <distance_score>  (940) 
2.694145966794837

>  <path>  (940) 
/opt/xchem-fragalysis-2/maxwin/BulkDock/SCRATCH/511025/C51175-P95/C51175-P95.minimised.mol

>  <scratch_subdir>  (940) 
/opt/xchem-fragalysis-2/maxwin/BulkDock/SCRATCH/511025/C51175-P95

>  <fragmenstein_runtime>  (940) 
3.7805874347686768

>  <fragmenstein_outcome>  (940) 
too moved

>  <fragmenstein_mode>  (940) 
expansion

>  <fragmenstein_error>  (940) 


$$$$
C49508-P127
     RDKit          3D

 22 23  0  0  0  0  0  0  0  0999 V2000
  -14.5032    0.1006    8.4048 C   0  0  0  0  0  0  0  0  0  0  0  0
  -15.4370    0.6072    9.2163 N   0  0  0  0  0  0  0  0  0  0  0  0
  -14.7214    1.0923   10.2429 N   0  0  0  0  0  0  0  0  0  0  0  0
  -13.3781    0.9386   10.0916 C   0  0  0  0  0  0  0  0  0  0  0  0
  -13.1832    0.2671    8.8960 C   0  0  0  0  0  0  0  0  0  0  0  0
  -11.9346   -0.3292    8.3171 C   0  0  0  0  0  0  0  0  0  0  0  0
  -10.8883   -0.3128    9.3449 N   0  0  0  0  0  0  0  0  0  0  0  0
   -9.6663    0.3783    8.9670 C   0  0  0  0  0  0  0  0  0  0  0  0
   -8.9617   -0.3231    7.8044 C   0  0  0  0  0  0  0  0  0  0  0  0
   -9.8679   -0.6788    6.6245 C   0  0  0  0  0  0  0  0  0  0  0  0
  -11.4185    0.2626    6.6864 S   0  0  0  0  0  0  0  0  0  0  0  0
  -14.8127   -0.4093    7.5009 H   0  0  0  0  0  0  0  0  0  0  0  0
  -15.2169    1.5264   11.0136 H   0  0  0  0  0  0  0  0  0  0  0  0
  -12.6797    1.2646   10.8495 H   0  0  0  0  0  0  0  0  0  0  0  0
  -12.2049   -1.3672    8.1125 H   0  0  0  0  0  0  0  0  0  0  0  0
  -10.6832   -1.2980    9.5396 H   0  0  0  0  0  0  0  0  0  0  0  0
   -9.8653    1.4332    8.7398 H   0  0  0  0  0  0  0  0  0  0  0  0
   -8.9929    0.3947    9.8302 H   0  0  0  0  0  0  0  0  0  0  0  0
   -8.1518    0.3282    7.4519 H   0  0  0  0  0  0  0  0  0  0  0  0
   -8.4731   -1.2404    8.1560 H   0  0  0  0  0  0  0  0  0  0  0  0
  -10.1086   -1.7476    6.6358 H   0  0  0  0  0  0  0  0  0  0  0  0
   -9.3572   -0.4756    5.6779 H   0  0  0  0  0  0  0  0  0  0  0  0
  1  2  2  0
  2  3  1  0
  3  4  1  0
  4  5  2  0
  5  6  1  0
  6  7  1  0
  7  8  1  0
  8  9  1  0
  9 10  1  0
 10 11  1  0
  5  1  1  0
 11  6  1  0
  1 12  1  0
  3 13  1  0
  4 14  1  0
  6 15  1  0
  7 16  1  0
  8 17  1  0
  8 18  1  0
  9 19  1  0
  9 20  1  0
 10 21  1  0
 10 22  1  0
M  END
>  <Energy>  (941) 
-16.120214240370114

>  <compound_id>  (941) 
49508

>  <target_id>  (941) 
1

>  <reference_id>  (941) 
127

>  <inspiration_ids>  (941) 
[127, 95]

>  <energy_score>  (941) 
-21.4771274055619

>  <distance_score>  (941) 
1.8886187997118637

>  <path>  (941) 
/opt/xchem-fragalysis-2/maxwin/BulkDock/SCRATCH/511025/C49508-P127/C49508-P127.minimised.mol

>  <scratch_subdir>  (941) 
/opt/xchem-fragalysis-2/maxwin/BulkDock/SCRATCH/511025/C49508-P127

>  <fragmenstein_runtime>  (941) 
3.5385358333587646

>  <fragmenstein_outcome>  (941) 
too moved

>  <fragmenstein_mode>  (941) 
expansion

>  <fragmenstein_error>  (941) 


$$$$
C49508-P95
     RDKit          3D

 22 23  0  0  0  0  0  0  0  0999 V2000
  -14.4039   -0.0260    8.3908 C   0  0  0  0  0  0  0  0  0  0  0  0
  -15.3548    0.4751    9.1865 N   0  0  0  0  0  0  0  0  0  0  0  0
  -14.6768    0.8440   10.2829 N   0  0  0  0  0  0  0  0  0  0  0  0
  -13.3379    0.6215   10.1965 C   0  0  0  0  0  0  0  0  0  0  0  0
  -13.1072    0.0279    8.9655 C   0  0  0  0  0  0  0  0  0  0  0  0
  -11.8479   -0.5812    8.4150 C   0  0  0  0  0  0  0  0  0  0  0  0
  -10.7731   -0.4224    9.4046 N   0  0  0  0  0  0  0  0  0  0  0  0
   -9.5874    0.2706    8.9239 C   0  0  0  0  0  0  0  0  0  0  0  0
   -8.8969   -0.4981    7.7944 C   0  0  0  0  0  0  0  0  0  0  0  0
   -9.8251   -0.9832    6.6796 C   0  0  0  0  0  0  0  0  0  0  0  0
  -11.4020   -0.0937    6.7251 S   0  0  0  0  0  0  0  0  0  0  0  0
  -14.6871   -0.4438    7.4320 H   0  0  0  0  0  0  0  0  0  0  0  0
  -15.1944    1.2508   11.0535 H   0  0  0  0  0  0  0  0  0  0  0  0
  -12.6691    0.8557   11.0125 H   0  0  0  0  0  0  0  0  0  0  0  0
  -12.0719   -1.6494    8.3277 H   0  0  0  0  0  0  0  0  0  0  0  0
  -10.5180   -1.3738    9.6867 H   0  0  0  0  0  0  0  0  0  0  0  0
   -9.8303    1.2969    8.6210 H   0  0  0  0  0  0  0  0  0  0  0  0
   -8.8821    0.3772    9.7561 H   0  0  0  0  0  0  0  0  0  0  0  0
   -8.1262    0.1521    7.3610 H   0  0  0  0  0  0  0  0  0  0  0  0
   -8.3588   -1.3639    8.2000 H   0  0  0  0  0  0  0  0  0  0  0  0
  -10.0246   -2.0553    6.7866 H   0  0  0  0  0  0  0  0  0  0  0  0
   -9.3534   -0.8410    5.7022 H   0  0  0  0  0  0  0  0  0  0  0  0
  1  2  2  0
  2  3  1  0
  3  4  1  0
  4  5  2  0
  5  6  1  0
  6  7  1  0
  7  8  1  0
  8  9  1  0
  9 10  1  0
 10 11  1  0
  5  1  1  0
 11  6  1  0
  1 12  1  0
  3 13  1  0
  4 14  1  0
  6 15  1  0
  7 16  1  0
  8 17  1  0
  8 18  1  0
  9 19  1  0
  9 20  1  0
 10 21  1  0
 10 22  1  0
M  END
>  <Energy>  (942) 
-16.538060628491081

>  <compound_id>  (942) 
49508

>  <target_id>  (942) 
1

>  <reference_id>  (942) 
95

>  <inspiration_ids>  (942) 
[127, 95]

>  <energy_score>  (942) 
-21.89497379368271

>  <distance_score>  (942) 
1.843910768053403

>  <path>  (942) 
/opt/xchem-fragalysis-2/maxwin/BulkDock/SCRATCH/511025/C49508-P95/C49508-P95.minimised.mol

>  <scratch_subdir>  (942) 
/opt/xchem-fragalysis-2/maxwin/BulkDock/SCRATCH/511025/C49508-P95

>  <fragmenstein_runtime>  (942) 
3.5796542167663574

>  <fragmenstein_outcome>  (942) 
too moved

>  <fragmenstein_mode>  (942) 
expansion

>  <fragmenstein_error>  (942) 


$$$$
C49512-P127
     RDKit          3D

 27 28  0  0  0  0  0  0  0  0999 V2000
  -10.5926   -0.3134    7.7414 C   0  0  0  0  0  0  0  0  0  0  0  0
  -10.8656    0.6273    8.6491 N   0  0  0  0  0  0  0  0  0  0  0  0
   -9.6853    1.2390    8.8266 N   0  0  0  0  0  0  0  0  0  0  0  0
   -8.6855    0.7257    8.0521 C   0  0  0  0  0  0  0  0  0  0  0  0
   -9.2429   -0.2915    7.3009 C   0  0  0  0  0  0  0  0  0  0  0  0
   -8.6349   -1.2416    6.3096 C   0  0  0  0  0  0  0  0  0  0  0  0
   -7.9811   -2.4544    6.9975 C   0  0  0  0  0  0  0  0  0  0  0  0
   -6.9188   -3.1511    6.1547 C   0  0  0  0  0  0  0  0  0  0  0  0
   -5.5753   -2.4139    6.1164 C   0  0  0  0  0  0  0  0  0  0  0  0
   -5.6182   -0.9402    6.5143 C   0  0  0  0  0  0  0  0  0  0  0  0
   -6.5149   -0.0637    5.6387 C   0  0  0  0  0  0  0  0  0  0  0  0
   -7.8471   -0.5417    5.2849 N   0  0  0  0  0  0  0  0  0  0  0  0
  -11.3836   -0.9880    7.4372 H   0  0  0  0  0  0  0  0  0  0  0  0
   -9.6270    1.9928    9.5032 H   0  0  0  0  0  0  0  0  0  0  0  0
   -7.6839    1.1201    8.1148 H   0  0  0  0  0  0  0  0  0  0  0  0
   -9.4829   -1.6539    5.7421 H   0  0  0  0  0  0  0  0  0  0  0  0
   -7.5673   -2.1848    7.9749 H   0  0  0  0  0  0  0  0  0  0  0  0
   -8.7737   -3.1838    7.2164 H   0  0  0  0  0  0  0  0  0  0  0  0
   -6.7516   -4.1577    6.5535 H   0  0  0  0  0  0  0  0  0  0  0  0
   -7.2889   -3.2988    5.1331 H   0  0  0  0  0  0  0  0  0  0  0  0
   -4.8832   -2.9207    6.8007 H   0  0  0  0  0  0  0  0  0  0  0  0
   -5.1361   -2.5192    5.1167 H   0  0  0  0  0  0  0  0  0  0  0  0
   -4.5965   -0.5413    6.4620 H   0  0  0  0  0  0  0  0  0  0  0  0
   -5.9086   -0.8408    7.5664 H   0  0  0  0  0  0  0  0  0  0  0  0
   -5.9851    0.1186    4.6944 H   0  0  0  0  0  0  0  0  0  0  0  0
   -6.5963    0.9266    6.0993 H   0  0  0  0  0  0  0  0  0  0  0  0
   -7.7591   -1.1716    4.4889 H   0  0  0  0  0  0  0  0  0  0  0  0
  1  2  2  0
  2  3  1  0
  3  4  1  0
  4  5  2  0
  5  6  1  0
  6  7  1  0
  7  8  1  0
  8  9  1  0
  9 10  1  0
 10 11  1  0
 11 12  1  0
  5  1  1  0
 12  6  1  0
  1 13  1  0
  3 14  1  0
  4 15  1  0
  6 16  1  0
  7 17  1  0
  7 18  1  0
  8 19  1  0
  8 20  1  0
  9 21  1  0
  9 22  1  0
 10 23  1  0
 10 24  1  0
 11 25  1  0
 11 26  1  0
 12 27  1  0
M  END
>  <Energy>  (943) 
15.93944966870237

>  <compound_id>  (943) 
49512

>  <target_id>  (943) 
1

>  <reference_id>  (943) 
127

>  <inspiration_ids>  (943) 
[127, 95]

>  <energy_score>  (943) 
-14.630459408580549

>  <distance_score>  (943) 
1.0047724104283877

>  <path>  (943) 
/opt/xchem-fragalysis-2/maxwin/BulkDock/SCRATCH/511025/C49512-P127/C49512-P127.minimised.mol

>  <scratch_subdir>  (943) 
/opt/xchem-fragalysis-2/maxwin/BulkDock/SCRATCH/511025/C49512-P127

>  <fragmenstein_runtime>  (943) 
5.291752815246582

>  <fragmenstein_outcome>  (943) 
too moved

>  <fragmenstein_mode>  (943) 
expansion

>  <fragmenstein_error>  (943) 


$$$$
C49512-P95
     RDKit          3D

 27 28  0  0  0  0  0  0  0  0999 V2000
  -10.7102   -0.3656    7.5907 C   0  0  0  0  0  0  0  0  0  0  0  0
  -11.0149    0.5479    8.5162 N   0  0  0  0  0  0  0  0  0  0  0  0
   -9.8305    1.1103    8.7983 N   0  0  0  0  0  0  0  0  0  0  0  0
   -8.7954    0.5945    8.0736 C   0  0  0  0  0  0  0  0  0  0  0  0
   -9.3333   -0.3702    7.2425 C   0  0  0  0  0  0  0  0  0  0  0  0
   -8.6973   -1.3030    6.2520 C   0  0  0  0  0  0  0  0  0  0  0  0
   -8.1520   -2.5751    6.9267 C   0  0  0  0  0  0  0  0  0  0  0  0
   -7.0896   -3.3088    6.1149 C   0  0  0  0  0  0  0  0  0  0  0  0
   -5.7111   -2.6396    6.1332 C   0  0  0  0  0  0  0  0  0  0  0  0
   -5.6825   -1.2018    6.6399 C   0  0  0  0  0  0  0  0  0  0  0  0
   -6.4781   -0.2128    5.7894 C   0  0  0  0  0  0  0  0  0  0  0  0
   -7.8053   -0.5939    5.3211 N   0  0  0  0  0  0  0  0  0  0  0  0
  -11.4966   -1.0020    7.2010 H   0  0  0  0  0  0  0  0  0  0  0  0
   -9.7982    1.8343    9.5075 H   0  0  0  0  0  0  0  0  0  0  0  0
   -7.7878    0.9464    8.2243 H   0  0  0  0  0  0  0  0  0  0  0  0
   -9.5186   -1.6479    5.6054 H   0  0  0  0  0  0  0  0  0  0  0  0
   -7.7801   -2.3652    7.9351 H   0  0  0  0  0  0  0  0  0  0  0  0
   -8.9966   -3.2627    7.0767 H   0  0  0  0  0  0  0  0  0  0  0  0
   -6.9851   -4.3277    6.5055 H   0  0  0  0  0  0  0  0  0  0  0  0
   -7.4291   -3.4261    5.0784 H   0  0  0  0  0  0  0  0  0  0  0  0
   -5.0482   -3.2280    6.7783 H   0  0  0  0  0  0  0  0  0  0  0  0
   -5.2710   -2.6926    5.1297 H   0  0  0  0  0  0  0  0  0  0  0  0
   -4.6362   -0.8764    6.6616 H   0  0  0  0  0  0  0  0  0  0  0  0
   -6.0154   -1.1555    7.6828 H   0  0  0  0  0  0  0  0  0  0  0  0
   -5.8830    0.0132    4.8948 H   0  0  0  0  0  0  0  0  0  0  0  0
   -6.5385    0.7420    6.3222 H   0  0  0  0  0  0  0  0  0  0  0  0
   -7.6948   -1.1939    4.5050 H   0  0  0  0  0  0  0  0  0  0  0  0
  1  2  2  0
  2  3  1  0
  3  4  1  0
  4  5  2  0
  5  6  1  0
  6  7  1  0
  7  8  1  0
  8  9  1  0
  9 10  1  0
 10 11  1  0
 11 12  1  0
  5  1  1  0
 12  6  1  0
  1 13  1  0
  3 14  1  0
  4 15  1  0
  6 16  1  0
  7 17  1  0
  7 18  1  0
  8 19  1  0
  8 20  1  0
  9 21  1  0
  9 22  1  0
 10 23  1  0
 10 24  1  0
 11 25  1  0
 11 26  1  0
 12 27  1  0
M  END
>  <Energy>  (944) 
15.978971921794436

>  <compound_id>  (944) 
49512

>  <target_id>  (944) 
1

>  <reference_id>  (944) 
95

>  <inspiration_ids>  (944) 
[127, 95]

>  <energy_score>  (944) 
-14.59093715548886

>  <distance_score>  (944) 
1.0140300620076483

>  <path>  (944) 
/opt/xchem-fragalysis-2/maxwin/BulkDock/SCRATCH/511025/C49512-P95/C49512-P95.minimised.mol

>  <scratch_subdir>  (944) 
/opt/xchem-fragalysis-2/maxwin/BulkDock/SCRATCH/511025/C49512-P95

>  <fragmenstein_runtime>  (944) 
5.035167455673218

>  <fragmenstein_outcome>  (944) 
too moved

>  <fragmenstein_mode>  (944) 
expansion

>  <fragmenstein_error>  (944) 


$$$$
C49513-P127
     RDKit          3D

 27 28  0  0  0  0  0  0  0  0999 V2000
   -9.8275    0.5731    8.6305 C   0  0  0  0  0  0  0  0  0  0  0  0
   -8.9480    0.7506    7.5870 C   0  0  0  0  0  0  0  0  0  0  0  0
   -9.0363   -0.4357    6.8095 C   0  0  0  0  0  0  0  0  0  0  0  0
   -8.3454   -0.8434    5.5289 C   0  0  0  0  0  0  0  0  0  0  0  0
   -8.0324   -2.3481    5.3868 C   0  0  0  0  0  0  0  0  0  0  0  0
   -7.0694   -2.9733    6.3881 C   0  0  0  0  0  0  0  0  0  0  0  0
   -5.6845   -2.3401    6.3962 C   0  0  0  0  0  0  0  0  0  0  0  0
   -5.7046   -0.9443    6.9979 C   0  0  0  0  0  0  0  0  0  0  0  0
   -6.0799    0.1583    6.0104 C   0  0  0  0  0  0  0  0  0  0  0  0
   -7.2220    0.0100    5.1184 N   0  0  0  0  0  0  0  0  0  0  0  0
   -9.9703   -1.2520    7.3130 N   0  0  0  0  0  0  0  0  0  0  0  0
  -10.3923   -0.6519    8.4319 N   0  0  0  0  0  0  0  0  0  0  0  0
  -10.0862    1.1877    9.4799 H   0  0  0  0  0  0  0  0  0  0  0  0
   -8.3256    1.6143    7.4075 H   0  0  0  0  0  0  0  0  0  0  0  0
   -9.1059   -0.6503    4.7565 H   0  0  0  0  0  0  0  0  0  0  0  0
   -7.6446   -2.5325    4.3749 H   0  0  0  0  0  0  0  0  0  0  0  0
   -8.9737   -2.9127    5.4347 H   0  0  0  0  0  0  0  0  0  0  0  0
   -7.5056   -2.9450    7.3932 H   0  0  0  0  0  0  0  0  0  0  0  0
   -6.9582   -4.0352    6.1382 H   0  0  0  0  0  0  0  0  0  0  0  0
   -5.0298   -2.9687    7.0103 H   0  0  0  0  0  0  0  0  0  0  0  0
   -5.2501   -2.3317    5.3896 H   0  0  0  0  0  0  0  0  0  0  0  0
   -4.6988   -0.7174    7.3757 H   0  0  0  0  0  0  0  0  0  0  0  0
   -6.3618   -0.9158    7.8748 H   0  0  0  0  0  0  0  0  0  0  0  0
   -5.2048    0.3465    5.3738 H   0  0  0  0  0  0  0  0  0  0  0  0
   -6.2027    1.0888    6.5768 H   0  0  0  0  0  0  0  0  0  0  0  0
   -6.8932   -0.3369    4.2188 H   0  0  0  0  0  0  0  0  0  0  0  0
  -11.0555   -1.1648    9.0088 H   0  0  0  0  0  0  0  0  0  0  0  0
  1  2  2  0
  2  3  1  0
  3  4  1  0
  4  5  1  0
  5  6  1  0
  6  7  1  0
  7  8  1  0
  8  9  1  0
  9 10  1  0
  3 11  2  0
 11 12  1  0
 12  1  1  0
 10  4  1  0
  1 13  1  0
  2 14  1  0
  4 15  1  0
  5 16  1  0
  5 17  1  0
  6 18  1  0
  6 19  1  0
  7 20  1  0
  7 21  1  0
  8 22  1  0
  8 23  1  0
  9 24  1  0
  9 25  1  0
 10 26  1  0
 12 27  1  0
M  END
>  <Energy>  (945) 
35.185362251974723

>  <compound_id>  (945) 
49513

>  <target_id>  (945) 
1

>  <reference_id>  (945) 
127

>  <inspiration_ids>  (945) 
[127, 95]

>  <energy_score>  (945) 
-27.1212153380865

>  <distance_score>  (945) 
1.5054088735260567

>  <path>  (945) 
/opt/xchem-fragalysis-2/maxwin/BulkDock/SCRATCH/511025/C49513-P127/C49513-P127.minimised.mol

>  <scratch_subdir>  (945) 
/opt/xchem-fragalysis-2/maxwin/BulkDock/SCRATCH/511025/C49513-P127

>  <fragmenstein_runtime>  (945) 
4.285306215286255

>  <fragmenstein_outcome>  (945) 
too moved

>  <fragmenstein_mode>  (945) 
expansion

>  <fragmenstein_error>  (945) 


$$$$
C49513-P95
     RDKit          3D

 27 28  0  0  0  0  0  0  0  0999 V2000
   -9.7757    0.7696    8.6657 C   0  0  0  0  0  0  0  0  0  0  0  0
   -9.0378    0.8479    7.5069 C   0  0  0  0  0  0  0  0  0  0  0  0
   -9.1334   -0.4378    6.9070 C   0  0  0  0  0  0  0  0  0  0  0  0
   -8.5914   -0.9505    5.5918 C   0  0  0  0  0  0  0  0  0  0  0  0
   -8.3607   -2.4732    5.4920 C   0  0  0  0  0  0  0  0  0  0  0  0
   -7.3305   -3.1085    6.4185 C   0  0  0  0  0  0  0  0  0  0  0  0
   -5.9283   -2.5262    6.2998 C   0  0  0  0  0  0  0  0  0  0  0  0
   -5.8553   -1.1132    6.8542 C   0  0  0  0  0  0  0  0  0  0  0  0
   -6.2631   -0.0321    5.8560 C   0  0  0  0  0  0  0  0  0  0  0  0
   -7.4639   -0.1781    5.0455 N   0  0  0  0  0  0  0  0  0  0  0  0
   -9.9169   -1.2340    7.6426 N   0  0  0  0  0  0  0  0  0  0  0  0
  -10.2785   -0.4976    8.6960 N   0  0  0  0  0  0  0  0  0  0  0  0
   -9.9874    1.4841    9.4470 H   0  0  0  0  0  0  0  0  0  0  0  0
   -8.5112    1.7112    7.1281 H   0  0  0  0  0  0  0  0  0  0  0  0
   -9.4094   -0.7519    4.8824 H   0  0  0  0  0  0  0  0  0  0  0  0
   -9.3176   -2.9876    5.6570 H   0  0  0  0  0  0  0  0  0  0  0  0
   -8.0854   -2.7182    4.4564 H   0  0  0  0  0  0  0  0  0  0  0  0
   -7.6789   -3.0437    7.4551 H   0  0  0  0  0  0  0  0  0  0  0  0
   -7.2773   -4.1793    6.1870 H   0  0  0  0  0  0  0  0  0  0  0  0
   -5.2502   -3.1577    6.8845 H   0  0  0  0  0  0  0  0  0  0  0  0
   -5.5731   -2.5657    5.2635 H   0  0  0  0  0  0  0  0  0  0  0  0
   -4.8183   -0.9148    7.1536 H   0  0  0  0  0  0  0  0  0  0  0  0
   -6.4476   -1.0315    7.7731 H   0  0  0  0  0  0  0  0  0  0  0  0
   -5.4308    0.1058    5.1537 H   0  0  0  0  0  0  0  0  0  0  0  0
   -6.3254    0.9193    6.3970 H   0  0  0  0  0  0  0  0  0  0  0  0
   -7.2115   -0.6052    4.1557 H   0  0  0  0  0  0  0  0  0  0  0  0
  -10.8580   -0.9457    9.3993 H   0  0  0  0  0  0  0  0  0  0  0  0
  1  2  2  0
  2  3  1  0
  3  4  1  0
  4  5  1  0
  5  6  1  0
  6  7  1  0
  7  8  1  0
  8  9  1  0
  9 10  1  0
  3 11  2  0
 11 12  1  0
 12  1  1  0
 10  4  1  0
  1 13  1  0
  2 14  1  0
  4 15  1  0
  5 16  1  0
  5 17  1  0
  6 18  1  0
  6 19  1  0
  7 20  1  0
  7 21  1  0
  8 22  1  0
  8 23  1  0
  9 24  1  0
  9 25  1  0
 10 26  1  0
 12 27  1  0
M  END
>  <Energy>  (946) 
34.417183516130294

>  <compound_id>  (946) 
49513

>  <target_id>  (946) 
1

>  <reference_id>  (946) 
95

>  <inspiration_ids>  (946) 
[127, 95]

>  <energy_score>  (946) 
-27.889394073931072

>  <distance_score>  (946) 
1.3839709661893023

>  <path>  (946) 
/opt/xchem-fragalysis-2/maxwin/BulkDock/SCRATCH/511025/C49513-P95/C49513-P95.minimised.mol

>  <scratch_subdir>  (946) 
/opt/xchem-fragalysis-2/maxwin/BulkDock/SCRATCH/511025/C49513-P95

>  <fragmenstein_runtime>  (946) 
4.269622564315796

>  <fragmenstein_outcome>  (946) 
too moved

>  <fragmenstein_mode>  (946) 
expansion

>  <fragmenstein_error>  (946) 


$$$$
C49514-P127
     RDKit          3D

 22 23  0  0  0  0  0  0  0  0999 V2000
  -12.9223   -0.1993    7.7551 C   0  0  0  0  0  0  0  0  0  0  0  0
  -13.8046    0.3489    8.6012 N   0  0  0  0  0  0  0  0  0  0  0  0
  -13.0891    0.5329    9.7167 N   0  0  0  0  0  0  0  0  0  0  0  0
  -11.7762    0.1853    9.5799 C   0  0  0  0  0  0  0  0  0  0  0  0
  -11.6102   -0.3269    8.2984 C   0  0  0  0  0  0  0  0  0  0  0  0
  -10.3620   -1.0010    7.7336 C   0  0  0  0  0  0  0  0  0  0  0  0
   -9.2015   -0.0899    7.2780 C   0  0  0  0  0  0  0  0  0  0  0  0
   -7.9021   -0.7990    7.0944 N   0  0  0  0  0  0  0  0  0  0  0  0
   -7.9728   -1.8837    6.0985 C   0  0  0  0  0  0  0  0  0  0  0  0
   -9.0660   -2.9327    6.3291 C   0  0  0  0  0  0  0  0  0  0  0  0
  -10.7061   -2.1521    6.3436 S   0  0  0  0  0  0  0  0  0  0  0  0
  -13.2694   -0.5146    6.7783 H   0  0  0  0  0  0  0  0  0  0  0  0
  -13.5556    0.9181   10.5302 H   0  0  0  0  0  0  0  0  0  0  0  0
  -11.0858    0.2776   10.4055 H   0  0  0  0  0  0  0  0  0  0  0  0
   -9.9614   -1.6034    8.5584 H   0  0  0  0  0  0  0  0  0  0  0  0
   -9.4619    0.4585    6.3631 H   0  0  0  0  0  0  0  0  0  0  0  0
   -9.0327    0.6731    8.0481 H   0  0  0  0  0  0  0  0  0  0  0  0
   -7.2086   -0.1183    6.7864 H   0  0  0  0  0  0  0  0  0  0  0  0
   -7.0029   -2.3948    6.0965 H   0  0  0  0  0  0  0  0  0  0  0  0
   -8.0886   -1.4430    5.0997 H   0  0  0  0  0  0  0  0  0  0  0  0
   -8.9063   -3.4684    7.2710 H   0  0  0  0  0  0  0  0  0  0  0  0
   -9.0489   -3.6677    5.5210 H   0  0  0  0  0  0  0  0  0  0  0  0
  1  2  2  0
  2  3  1  0
  3  4  1  0
  4  5  2  0
  5  6  1  0
  6  7  1  0
  7  8  1  0
  8  9  1  0
  9 10  1  0
 10 11  1  0
  5  1  1  0
 11  6  1  0
  1 12  1  0
  3 13  1  0
  4 14  1  0
  6 15  1  0
  7 16  1  0
  7 17  1  0
  8 18  1  0
  9 19  1  0
  9 20  1  0
 10 21  1  0
 10 22  1  0
M  END
>  <Energy>  (947) 
69.599504991407642

>  <compound_id>  (947) 
49514

>  <target_id>  (947) 
1

>  <reference_id>  (947) 
127

>  <inspiration_ids>  (947) 
[127, 95]

>  <energy_score>  (947) 
-25.65864803534987

>  <distance_score>  (947) 
1.8568328288233213

>  <path>  (947) 
/opt/xchem-fragalysis-2/maxwin/BulkDock/SCRATCH/511025/C49514-P127/C49514-P127.minimised.mol

>  <scratch_subdir>  (947) 
/opt/xchem-fragalysis-2/maxwin/BulkDock/SCRATCH/511025/C49514-P127

>  <fragmenstein_runtime>  (947) 
2.5198452472686768

>  <fragmenstein_outcome>  (947) 
too moved

>  <fragmenstein_mode>  (947) 
expansion

>  <fragmenstein_error>  (947) 


$$$$
C49514-P95
     RDKit          3D

 22 23  0  0  0  0  0  0  0  0999 V2000
  -12.7904   -0.3544    7.7369 C   0  0  0  0  0  0  0  0  0  0  0  0
  -13.7896    0.0955    8.5077 N   0  0  0  0  0  0  0  0  0  0  0  0
  -13.2330    0.1752    9.7219 N   0  0  0  0  0  0  0  0  0  0  0  0
  -11.9007   -0.1228    9.7245 C   0  0  0  0  0  0  0  0  0  0  0  0
  -11.5566   -0.5050    8.4338 C   0  0  0  0  0  0  0  0  0  0  0  0
  -10.2107   -1.0386    7.9555 C   0  0  0  0  0  0  0  0  0  0  0  0
   -9.2190    0.0121    7.3946 C   0  0  0  0  0  0  0  0  0  0  0  0
   -8.0115   -0.4836    6.6639 N   0  0  0  0  0  0  0  0  0  0  0  0
   -7.6286   -1.8353    7.1029 C   0  0  0  0  0  0  0  0  0  0  0  0
   -8.6259   -2.9314    6.7063 C   0  0  0  0  0  0  0  0  0  0  0  0
  -10.3517   -2.3609    6.7084 S   0  0  0  0  0  0  0  0  0  0  0  0
  -12.9937   -0.5766    6.6954 H   0  0  0  0  0  0  0  0  0  0  0  0
  -13.8175    0.4577   10.5003 H   0  0  0  0  0  0  0  0  0  0  0  0
  -11.3246   -0.0883   10.6363 H   0  0  0  0  0  0  0  0  0  0  0  0
   -9.7437   -1.4992    8.8340 H   0  0  0  0  0  0  0  0  0  0  0  0
   -9.7456    0.7078    6.7280 H   0  0  0  0  0  0  0  0  0  0  0  0
   -8.8645    0.6280    8.2313 H   0  0  0  0  0  0  0  0  0  0  0  0
   -8.2800   -0.5533    5.6792 H   0  0  0  0  0  0  0  0  0  0  0  0
   -7.4785   -1.8276    8.1879 H   0  0  0  0  0  0  0  0  0  0  0  0
   -6.6502   -2.0798    6.6731 H   0  0  0  0  0  0  0  0  0  0  0  0
   -8.5290   -3.7900    7.3787 H   0  0  0  0  0  0  0  0  0  0  0  0
   -8.4074   -3.2811    5.6918 H   0  0  0  0  0  0  0  0  0  0  0  0
  1  2  2  0
  2  3  1  0
  3  4  1  0
  4  5  2  0
  5  6  1  0
  6  7  1  0
  7  8  1  0
  8  9  1  0
  9 10  1  0
 10 11  1  0
  5  1  1  0
 11  6  1  0
  1 12  1  0
  3 13  1  0
  4 14  1  0
  6 15  1  0
  7 16  1  0
  7 17  1  0
  8 18  1  0
  9 19  1  0
  9 20  1  0
 10 21  1  0
 10 22  1  0
M  END
>  <Energy>  (948) 
73.769211909225348

>  <compound_id>  (948) 
49514

>  <target_id>  (948) 
1

>  <reference_id>  (948) 
95

>  <inspiration_ids>  (948) 
[127, 95]

>  <energy_score>  (948) 
-21.488941117532875

>  <distance_score>  (948) 
1.9750839251162304

>  <path>  (948) 
/opt/xchem-fragalysis-2/maxwin/BulkDock/SCRATCH/511025/C49514-P95/C49514-P95.minimised.mol

>  <scratch_subdir>  (948) 
/opt/xchem-fragalysis-2/maxwin/BulkDock/SCRATCH/511025/C49514-P95

>  <fragmenstein_runtime>  (948) 
2.4141199588775635

>  <fragmenstein_outcome>  (948) 
too moved

>  <fragmenstein_mode>  (948) 
expansion

>  <fragmenstein_error>  (948) 


$$$$
C49520-P127
     RDKit          3D

 27 28  0  0  0  0  0  0  0  0999 V2000
  -10.3606    1.2218    9.0775 C   0  0  0  0  0  0  0  0  0  0  0  0
   -9.1132    0.7118    8.8157 C   0  0  0  0  0  0  0  0  0  0  0  0
   -9.2754   -0.1053    7.6742 C   0  0  0  0  0  0  0  0  0  0  0  0
   -8.2732   -0.9879    6.9708 C   0  0  0  0  0  0  0  0  0  0  0  0
   -6.8149   -0.6177    7.2939 C   0  0  0  0  0  0  0  0  0  0  0  0
   -5.7282   -1.4362    6.5888 C   0  0  0  0  0  0  0  0  0  0  0  0
   -6.1414   -2.1384    5.2899 C   0  0  0  0  0  0  0  0  0  0  0  0
   -7.1896   -3.1565    5.3480 N   0  0  0  0  0  0  0  0  0  0  0  0
   -7.6623   -3.4959    6.6762 C   0  0  0  0  0  0  0  0  0  0  0  0
   -8.6166   -2.4608    7.2454 C   0  0  0  0  0  0  0  0  0  0  0  0
  -10.5374   -0.0564    7.2242 N   0  0  0  0  0  0  0  0  0  0  0  0
  -11.1821    0.6890    8.1307 N   0  0  0  0  0  0  0  0  0  0  0  0
  -10.7324    1.8720    9.8552 H   0  0  0  0  0  0  0  0  0  0  0  0
   -8.2170    0.8748    9.3911 H   0  0  0  0  0  0  0  0  0  0  0  0
   -8.4218   -0.7992    5.8973 H   0  0  0  0  0  0  0  0  0  0  0  0
   -6.6331   -0.6755    8.3745 H   0  0  0  0  0  0  0  0  0  0  0  0
   -6.6637    0.4379    7.0282 H   0  0  0  0  0  0  0  0  0  0  0  0
   -4.8862   -0.7666    6.3678 H   0  0  0  0  0  0  0  0  0  0  0  0
   -5.3149   -2.1723    7.2880 H   0  0  0  0  0  0  0  0  0  0  0  0
   -6.4404   -1.3845    4.5522 H   0  0  0  0  0  0  0  0  0  0  0  0
   -5.2415   -2.6129    4.8774 H   0  0  0  0  0  0  0  0  0  0  0  0
   -6.8628   -4.0156    4.9028 H   0  0  0  0  0  0  0  0  0  0  0  0
   -6.8317   -3.7065    7.3508 H   0  0  0  0  0  0  0  0  0  0  0  0
   -8.2142   -4.4416    6.6217 H   0  0  0  0  0  0  0  0  0  0  0  0
   -9.6162   -2.6631    6.8343 H   0  0  0  0  0  0  0  0  0  0  0  0
   -8.7073   -2.6318    8.3237 H   0  0  0  0  0  0  0  0  0  0  0  0
  -12.1838    0.8066    8.0267 H   0  0  0  0  0  0  0  0  0  0  0  0
  1  2  2  0
  2  3  1  0
  3  4  1  0
  4  5  1  0
  5  6  1  0
  6  7  1  0
  7  8  1  0
  8  9  1  0
  9 10  1  0
  3 11  2  0
 11 12  1  0
 12  1  1  0
 10  4  1  0
  1 13  1  0
  2 14  1  0
  4 15  1  0
  5 16  1  0
  5 17  1  0
  6 18  1  0
  6 19  1  0
  7 20  1  0
  7 21  1  0
  8 22  1  0
  9 23  1  0
  9 24  1  0
 10 25  1  0
 10 26  1  0
 12 27  1  0
M  END
>  <Energy>  (949) 
19.595106424746845

>  <compound_id>  (949) 
49520

>  <target_id>  (949) 
1

>  <reference_id>  (949) 
127

>  <inspiration_ids>  (949) 
[127, 95]

>  <energy_score>  (949) 
-18.25784214521454

>  <distance_score>  (949) 
1.3677963523990513

>  <path>  (949) 
/opt/xchem-fragalysis-2/maxwin/BulkDock/SCRATCH/511025/C49520-P127/C49520-P127.minimised.mol

>  <scratch_subdir>  (949) 
/opt/xchem-fragalysis-2/maxwin/BulkDock/SCRATCH/511025/C49520-P127

>  <fragmenstein_runtime>  (949) 
3.094679117202759

>  <fragmenstein_outcome>  (949) 
too moved

>  <fragmenstein_mode>  (949) 
expansion

>  <fragmenstein_error>  (949) 


$$$$
C49520-P95
     RDKit          3D

 27 28  0  0  0  0  0  0  0  0999 V2000
  -10.0790    1.3091    9.2385 C   0  0  0  0  0  0  0  0  0  0  0  0
   -8.8801    0.7068    8.9426 C   0  0  0  0  0  0  0  0  0  0  0  0
   -9.1308   -0.0698    7.7862 C   0  0  0  0  0  0  0  0  0  0  0  0
   -8.2199   -1.0079    7.0293 C   0  0  0  0  0  0  0  0  0  0  0  0
   -6.7302   -0.7533    7.3132 C   0  0  0  0  0  0  0  0  0  0  0  0
   -5.7328   -1.6381    6.5588 C   0  0  0  0  0  0  0  0  0  0  0  0
   -6.2306   -2.2604    5.2486 C   0  0  0  0  0  0  0  0  0  0  0  0
   -7.3483   -3.2020    5.3004 N   0  0  0  0  0  0  0  0  0  0  0  0
   -7.8174   -3.5493    6.6284 C   0  0  0  0  0  0  0  0  0  0  0  0
   -8.6596   -2.4605    7.2749 C   0  0  0  0  0  0  0  0  0  0  0  0
  -10.3936    0.0905    7.3667 N   0  0  0  0  0  0  0  0  0  0  0  0
  -10.9590    0.8640    8.2990 N   0  0  0  0  0  0  0  0  0  0  0  0
  -10.3831    1.9716   10.0350 H   0  0  0  0  0  0  0  0  0  0  0  0
   -7.9633    0.7895    9.5065 H   0  0  0  0  0  0  0  0  0  0  0  0
   -8.3871   -0.7798    5.9662 H   0  0  0  0  0  0  0  0  0  0  0  0
   -6.5224   -0.8467    8.3868 H   0  0  0  0  0  0  0  0  0  0  0  0
   -6.5075    0.2930    7.0614 H   0  0  0  0  0  0  0  0  0  0  0  0
   -4.8408   -1.0379    6.3391 H   0  0  0  0  0  0  0  0  0  0  0  0
   -5.3708   -2.4299    7.2237 H   0  0  0  0  0  0  0  0  0  0  0  0
   -6.4916   -1.4604    4.5459 H   0  0  0  0  0  0  0  0  0  0  0  0
   -5.3792   -2.7842    4.7954 H   0  0  0  0  0  0  0  0  0  0  0  0
   -7.0992   -4.0658    4.8169 H   0  0  0  0  0  0  0  0  0  0  0  0
   -6.9912   -3.8647    7.2685 H   0  0  0  0  0  0  0  0  0  0  0  0
   -8.4538   -4.4393    6.5488 H   0  0  0  0  0  0  0  0  0  0  0  0
   -9.6908   -2.5737    6.9102 H   0  0  0  0  0  0  0  0  0  0  0  0
   -8.7084   -2.6595    8.3511 H   0  0  0  0  0  0  0  0  0  0  0  0
  -11.9490    1.0651    8.2148 H   0  0  0  0  0  0  0  0  0  0  0  0
  1  2  2  0
  2  3  1  0
  3  4  1  0
  4  5  1  0
  5  6  1  0
  6  7  1  0
  7  8  1  0
  8  9  1  0
  9 10  1  0
  3 11  2  0
 11 12  1  0
 12  1  1  0
 10  4  1  0
  1 13  1  0
  2 14  1  0
  4 15  1  0
  5 16  1  0
  5 17  1  0
  6 18  1  0
  6 19  1  0
  7 20  1  0
  7 21  1  0
  8 22  1  0
  9 23  1  0
  9 24  1  0
 10 25  1  0
 10 26  1  0
 12 27  1  0
M  END
>  <Energy>  (950) 
19.490315425054451

>  <compound_id>  (950) 
49520

>  <target_id>  (950) 
1

>  <reference_id>  (950) 
95

>  <inspiration_ids>  (950) 
[127, 95]

>  <energy_score>  (950) 
-18.362633144906738

>  <distance_score>  (950) 
1.3841993933455103

>  <path>  (950) 
/opt/xchem-fragalysis-2/maxwin/BulkDock/SCRATCH/511025/C49520-P95/C49520-P95.minimised.mol

>  <scratch_subdir>  (950) 
/opt/xchem-fragalysis-2/maxwin/BulkDock/SCRATCH/511025/C49520-P95

>  <fragmenstein_runtime>  (950) 
3.277653455734253

>  <fragmenstein_outcome>  (950) 
too moved

>  <fragmenstein_mode>  (950) 
expansion

>  <fragmenstein_error>  (950) 


$$$$
C18341-P127
     RDKit          3D

 22 23  0  0  0  0  0  0  0  0999 V2000
  -10.5916   -2.1346    6.5510 C   0  0  0  0  0  0  0  0  0  0  0  0
  -10.5463   -1.0364    7.3387 C   0  0  0  0  0  0  0  0  0  0  0  0
  -11.7155   -0.5181    8.0352 C   0  0  0  0  0  0  0  0  0  0  0  0
  -11.8407    0.0830    9.3212 C   0  0  0  0  0  0  0  0  0  0  0  0
  -13.1136    0.2727    9.7017 N   0  0  0  0  0  0  0  0  0  0  0  0
  -13.8144   -0.2356    8.6739 N   0  0  0  0  0  0  0  0  0  0  0  0
  -13.0323   -0.6536    7.6352 C   0  0  0  0  0  0  0  0  0  0  0  0
   -9.2040   -0.3969    7.6395 C   0  0  0  0  0  0  0  0  0  0  0  0
   -8.0129   -1.2386    7.3830 N   0  0  0  0  0  0  0  0  0  0  0  0
   -8.1103   -1.9315    6.0995 C   0  0  0  0  0  0  0  0  0  0  0  0
   -9.3629   -2.8052    6.0066 C   0  0  0  0  0  0  0  0  0  0  0  0
  -11.5309   -2.6546    6.3819 H   0  0  0  0  0  0  0  0  0  0  0  0
  -11.0531    0.3480   10.0141 H   0  0  0  0  0  0  0  0  0  0  0  0
  -14.8233   -0.2933    8.7524 H   0  0  0  0  0  0  0  0  0  0  0  0
  -13.4749   -1.0953    6.7542 H   0  0  0  0  0  0  0  0  0  0  0  0
   -9.1438   -0.1054    8.6932 H   0  0  0  0  0  0  0  0  0  0  0  0
   -9.1207    0.5245    7.0488 H   0  0  0  0  0  0  0  0  0  0  0  0
   -7.1888   -0.6438    7.3904 H   0  0  0  0  0  0  0  0  0  0  0  0
   -7.2220   -2.5570    5.9569 H   0  0  0  0  0  0  0  0  0  0  0  0
   -8.1107   -1.1940    5.2866 H   0  0  0  0  0  0  0  0  0  0  0  0
   -9.5335   -3.0763    4.9586 H   0  0  0  0  0  0  0  0  0  0  0  0
   -9.2068   -3.7381    6.5620 H   0  0  0  0  0  0  0  0  0  0  0  0
  1  2  2  0
  2  3  1  0
  3  4  1  0
  4  5  2  0
  5  6  1  0
  6  7  1  0
  2  8  1  0
  8  9  1  0
  9 10  1  0
 10 11  1  0
 11  1  1  0
  7  3  2  0
  1 12  1  0
  4 13  1  0
  6 14  1  0
  7 15  1  0
  8 16  1  0
  8 17  1  0
  9 18  1  0
 10 19  1  0
 10 20  1  0
 11 21  1  0
 11 22  1  0
M  END
>  <Energy>  (951) 
31.239810215298434

>  <compound_id>  (951) 
18341

>  <target_id>  (951) 
1

>  <reference_id>  (951) 
127

>  <inspiration_ids>  (951) 
[127, 95]

>  <energy_score>  (951) 
-21.33609153479381

>  <distance_score>  (951) 
1.9888256022512296

>  <path>  (951) 
/opt/xchem-fragalysis-2/maxwin/BulkDock/SCRATCH/511025/C18341-P127/C18341-P127.minimised.mol

>  <scratch_subdir>  (951) 
/opt/xchem-fragalysis-2/maxwin/BulkDock/SCRATCH/511025/C18341-P127

>  <fragmenstein_runtime>  (951) 
1.4433369636535645

>  <fragmenstein_outcome>  (951) 
too moved

>  <fragmenstein_mode>  (951) 
expansion

>  <fragmenstein_error>  (951) 


$$$$
C18341-P95
     RDKit          3D

 22 23  0  0  0  0  0  0  0  0999 V2000
  -10.3400   -2.3151    6.9498 C   0  0  0  0  0  0  0  0  0  0  0  0
  -10.3881   -1.1257    7.5846 C   0  0  0  0  0  0  0  0  0  0  0  0
  -11.5829   -0.6540    8.2617 C   0  0  0  0  0  0  0  0  0  0  0  0
  -11.7445    0.0175    9.5043 C   0  0  0  0  0  0  0  0  0  0  0  0
  -13.0274    0.1585    9.8720 N   0  0  0  0  0  0  0  0  0  0  0  0
  -13.6969   -0.4442    8.8736 N   0  0  0  0  0  0  0  0  0  0  0  0
  -12.8875   -0.8911    7.8693 C   0  0  0  0  0  0  0  0  0  0  0  0
   -9.1256   -0.2969    7.6910 C   0  0  0  0  0  0  0  0  0  0  0  0
   -7.8600   -1.0252    7.4328 N   0  0  0  0  0  0  0  0  0  0  0  0
   -7.9633   -1.8748    6.2450 C   0  0  0  0  0  0  0  0  0  0  0  0
   -9.0912   -2.9002    6.3656 C   0  0  0  0  0  0  0  0  0  0  0  0
  -11.2182   -2.9502    6.9290 H   0  0  0  0  0  0  0  0  0  0  0  0
  -10.9734    0.3749   10.1734 H   0  0  0  0  0  0  0  0  0  0  0  0
  -14.7025   -0.5462    8.9522 H   0  0  0  0  0  0  0  0  0  0  0  0
  -13.2962   -1.4052    7.0098 H   0  0  0  0  0  0  0  0  0  0  0  0
   -9.0323    0.1296    8.6957 H   0  0  0  0  0  0  0  0  0  0  0  0
   -9.2007    0.5447    6.9907 H   0  0  0  0  0  0  0  0  0  0  0  0
   -7.1175   -0.3424    7.2988 H   0  0  0  0  0  0  0  0  0  0  0  0
   -7.0134   -2.3990    6.0917 H   0  0  0  0  0  0  0  0  0  0  0  0
   -8.1232   -1.2461    5.3596 H   0  0  0  0  0  0  0  0  0  0  0  0
   -9.3113   -3.3123    5.3744 H   0  0  0  0  0  0  0  0  0  0  0  0
   -8.7711   -3.7345    7.0019 H   0  0  0  0  0  0  0  0  0  0  0  0
  1  2  2  0
  2  3  1  0
  3  4  1  0
  4  5  2  0
  5  6  1  0
  6  7  1  0
  2  8  1  0
  8  9  1  0
  9 10  1  0
 10 11  1  0
 11  1  1  0
  7  3  2  0
  1 12  1  0
  4 13  1  0
  6 14  1  0
  7 15  1  0
  8 16  1  0
  8 17  1  0
  9 18  1  0
 10 19  1  0
 10 20  1  0
 11 21  1  0
 11 22  1  0
M  END
>  <Energy>  (952) 
30.731098135797854

>  <compound_id>  (952) 
18341

>  <target_id>  (952) 
1

>  <reference_id>  (952) 
95

>  <inspiration_ids>  (952) 
[127, 95]

>  <energy_score>  (952) 
-21.844803614295103

>  <distance_score>  (952) 
1.9815332583974663

>  <path>  (952) 
/opt/xchem-fragalysis-2/maxwin/BulkDock/SCRATCH/511025/C18341-P95/C18341-P95.minimised.mol

>  <scratch_subdir>  (952) 
/opt/xchem-fragalysis-2/maxwin/BulkDock/SCRATCH/511025/C18341-P95

>  <fragmenstein_runtime>  (952) 
2.024667739868164

>  <fragmenstein_outcome>  (952) 
too moved

>  <fragmenstein_mode>  (952) 
expansion

>  <fragmenstein_error>  (952) 


$$$$
C49526-P127
     RDKit          3D

 27 28  0  0  0  0  0  0  0  0999 V2000
  -10.2719    1.2768    9.2654 C   0  0  0  0  0  0  0  0  0  0  0  0
  -11.1272    0.9855    8.1903 C   0  0  0  0  0  0  0  0  0  0  0  0
  -10.5130    0.3000    7.2253 N   0  0  0  0  0  0  0  0  0  0  0  0
   -9.2798    0.0693    7.7287 N   0  0  0  0  0  0  0  0  0  0  0  0
   -8.3669   -0.7845    6.9658 C   0  0  0  0  0  0  0  0  0  0  0  0
   -6.8812   -0.6163    7.3433 C   0  0  0  0  0  0  0  0  0  0  0  0
   -5.9489   -1.1659    6.2639 C   0  0  0  0  0  0  0  0  0  0  0  0
   -5.7413   -2.6807    6.2665 C   0  0  0  0  0  0  0  0  0  0  0  0
   -6.8534   -3.5275    6.6733 N   0  0  0  0  0  0  0  0  0  0  0  0
   -8.1450   -3.1813    6.1212 C   0  0  0  0  0  0  0  0  0  0  0  0
   -8.8730   -2.2241    7.0414 C   0  0  0  0  0  0  0  0  0  0  0  0
   -9.0816    0.6758    8.9327 C   0  0  0  0  0  0  0  0  0  0  0  0
  -10.4927    1.8279   10.1675 H   0  0  0  0  0  0  0  0  0  0  0  0
  -12.1652    1.2607    8.0592 H   0  0  0  0  0  0  0  0  0  0  0  0
   -8.4843   -0.4305    5.9310 H   0  0  0  0  0  0  0  0  0  0  0  0
   -6.6603   -1.0723    8.3146 H   0  0  0  0  0  0  0  0  0  0  0  0
   -6.6626    0.4551    7.4443 H   0  0  0  0  0  0  0  0  0  0  0  0
   -4.9643   -0.6948    6.3817 H   0  0  0  0  0  0  0  0  0  0  0  0
   -6.3128   -0.8530    5.2769 H   0  0  0  0  0  0  0  0  0  0  0  0
   -5.4076   -2.9794    5.2646 H   0  0  0  0  0  0  0  0  0  0  0  0
   -4.9034   -2.9069    6.9363 H   0  0  0  0  0  0  0  0  0  0  0  0
   -6.6425   -4.4914    6.4031 H   0  0  0  0  0  0  0  0  0  0  0  0
   -8.0843   -2.8158    5.0898 H   0  0  0  0  0  0  0  0  0  0  0  0
   -8.7487   -4.0951    6.0919 H   0  0  0  0  0  0  0  0  0  0  0  0
   -9.9358   -2.2548    6.7649 H   0  0  0  0  0  0  0  0  0  0  0  0
   -8.8336   -2.5854    8.0781 H   0  0  0  0  0  0  0  0  0  0  0  0
   -8.1465    0.6068    9.4643 H   0  0  0  0  0  0  0  0  0  0  0  0
  1  2  1  0
  2  3  2  0
  3  4  1  0
  4  5  1  0
  5  6  1  0
  6  7  1  0
  7  8  1  0
  8  9  1  0
  9 10  1  0
 10 11  1  0
  4 12  1  0
 12  1  2  0
 11  5  1  0
  1 13  1  0
  2 14  1  0
  5 15  1  0
  6 16  1  0
  6 17  1  0
  7 18  1  0
  7 19  1  0
  8 20  1  0
  8 21  1  0
  9 22  1  0
 10 23  1  0
 10 24  1  0
 11 25  1  0
 11 26  1  0
 12 27  1  0
M  END
>  <Energy>  (953) 
11.98673867826912

>  <compound_id>  (953) 
49526

>  <target_id>  (953) 
1

>  <reference_id>  (953) 
127

>  <inspiration_ids>  (953) 
[127, 95]

>  <energy_score>  (953) 
-29.780599240172876

>  <distance_score>  (953) 
1.474937014946398

>  <path>  (953) 
/opt/xchem-fragalysis-2/maxwin/BulkDock/SCRATCH/511025/C49526-P127/C49526-P127.minimised.mol

>  <scratch_subdir>  (953) 
/opt/xchem-fragalysis-2/maxwin/BulkDock/SCRATCH/511025/C49526-P127

>  <fragmenstein_runtime>  (953) 
1.3985371589660645

>  <fragmenstein_outcome>  (953) 
too moved

>  <fragmenstein_mode>  (953) 
expansion

>  <fragmenstein_error>  (953) 


$$$$
C49526-P95
     RDKit          3D

 27 28  0  0  0  0  0  0  0  0999 V2000
  -10.0756    1.6818    9.0296 C   0  0  0  0  0  0  0  0  0  0  0  0
  -10.8716    0.5309    8.9036 C   0  0  0  0  0  0  0  0  0  0  0  0
  -10.2802   -0.4089    8.1702 N   0  0  0  0  0  0  0  0  0  0  0  0
   -9.0837    0.1135    7.8529 N   0  0  0  0  0  0  0  0  0  0  0  0
   -8.1401   -0.6225    6.9988 C   0  0  0  0  0  0  0  0  0  0  0  0
   -6.7787   -0.7887    7.7006 C   0  0  0  0  0  0  0  0  0  0  0  0
   -5.6509   -1.1428    6.7333 C   0  0  0  0  0  0  0  0  0  0  0  0
   -5.5359   -2.6155    6.3456 C   0  0  0  0  0  0  0  0  0  0  0  0
   -6.7587   -3.3855    6.2231 N   0  0  0  0  0  0  0  0  0  0  0  0
   -7.8451   -2.7223    5.5321 C   0  0  0  0  0  0  0  0  0  0  0  0
   -8.7379   -1.9442    6.4860 C   0  0  0  0  0  0  0  0  0  0  0  0
   -8.9355    1.3955    8.3153 C   0  0  0  0  0  0  0  0  0  0  0  0
  -10.3031    2.5960    9.5576 H   0  0  0  0  0  0  0  0  0  0  0  0
  -11.8558    0.3354    9.3082 H   0  0  0  0  0  0  0  0  0  0  0  0
   -8.0067    0.0407    6.1322 H   0  0  0  0  0  0  0  0  0  0  0  0
   -6.8533   -1.5205    8.5077 H   0  0  0  0  0  0  0  0  0  0  0  0
   -6.4966    0.1563    8.1815 H   0  0  0  0  0  0  0  0  0  0  0  0
   -4.6990   -0.8554    7.1972 H   0  0  0  0  0  0  0  0  0  0  0  0
   -5.7431   -0.5312    5.8270 H   0  0  0  0  0  0  0  0  0  0  0  0
   -4.8918   -3.1198    7.0727 H   0  0  0  0  0  0  0  0  0  0  0  0
   -4.9862   -2.6776    5.3980 H   0  0  0  0  0  0  0  0  0  0  0  0
   -7.0743   -3.7401    7.1255 H   0  0  0  0  0  0  0  0  0  0  0  0
   -7.4902   -2.0948    4.7060 H   0  0  0  0  0  0  0  0  0  0  0  0
   -8.4601   -3.5023    5.0700 H   0  0  0  0  0  0  0  0  0  0  0  0
   -9.6726   -1.7245    5.9514 H   0  0  0  0  0  0  0  0  0  0  0  0
   -9.0215   -2.5877    7.3307 H   0  0  0  0  0  0  0  0  0  0  0  0
   -8.0497    1.9790    8.1133 H   0  0  0  0  0  0  0  0  0  0  0  0
  1  2  1  0
  2  3  2  0
  3  4  1  0
  4  5  1  0
  5  6  1  0
  6  7  1  0
  7  8  1  0
  8  9  1  0
  9 10  1  0
 10 11  1  0
  4 12  1  0
 12  1  2  0
 11  5  1  0
  1 13  1  0
  2 14  1  0
  5 15  1  0
  6 16  1  0
  6 17  1  0
  7 18  1  0
  7 19  1  0
  8 20  1  0
  8 21  1  0
  9 22  1  0
 10 23  1  0
 10 24  1  0
 11 25  1  0
 11 26  1  0
 12 27  1  0
M  END
>  <Energy>  (954) 
14.474267333259018

>  <compound_id>  (954) 
49526

>  <target_id>  (954) 
1

>  <reference_id>  (954) 
95

>  <inspiration_ids>  (954) 
[127, 95]

>  <energy_score>  (954) 
-27.29307058518293

>  <distance_score>  (954) 
1.305303897472226

>  <path>  (954) 
/opt/xchem-fragalysis-2/maxwin/BulkDock/SCRATCH/511025/C49526-P95/C49526-P95.minimised.mol

>  <scratch_subdir>  (954) 
/opt/xchem-fragalysis-2/maxwin/BulkDock/SCRATCH/511025/C49526-P95

>  <fragmenstein_runtime>  (954) 
1.2068114280700684

>  <fragmenstein_outcome>  (954) 
too moved

>  <fragmenstein_mode>  (954) 
expansion

>  <fragmenstein_error>  (954) 


$$$$
C8568-P127
     RDKit          3D

 43 44  0  0  0  0  0  0  0  0999 V2000
   -5.1878   -0.0376    5.3213 C   0  0  0  0  0  0  0  0  0  0  0  0
   -4.9675   -0.8847    6.5944 C   0  0  0  0  0  0  0  0  0  0  0  0
   -3.8780   -1.8896    6.3190 C   0  0  0  0  0  0  0  0  0  0  0  0
   -4.4532   -0.0365    7.7459 C   0  0  0  0  0  0  0  0  0  0  0  0
   -4.3870   -0.3678    8.9189 O   0  0  0  0  0  0  0  0  0  0  0  0
   -3.9434    1.1615    7.3761 O   0  0  0  0  0  0  0  0  0  0  0  0
   -6.2227   -1.5476    6.9454 N   0  0  0  0  0  0  0  0  0  0  0  0
   -6.6336   -2.8225    6.6266 C   0  0  0  0  0  0  0  0  0  0  0  0
   -7.9716   -2.7173    6.3148 C   0  0  0  0  0  0  0  0  0  0  0  0
   -8.2335   -1.3581    6.5088 C   0  0  0  0  0  0  0  0  0  0  0  0
   -9.2252   -0.5869    6.0627 N   0  0  0  0  0  0  0  0  0  0  0  0
  -10.3382   -0.8800    5.0393 C   0  0  0  0  0  0  0  0  0  0  0  0
  -10.6110   -1.8668    4.4809 O   0  0  0  0  0  0  0  0  0  0  0  0
  -11.0182    0.4880    4.7845 C   0  0  0  0  0  0  0  0  0  0  0  0
  -11.8830    0.3476    3.7319 F   0  0  0  0  0  0  0  0  0  0  0  0
  -10.0942    1.3934    4.3153 F   0  0  0  0  0  0  0  0  0  0  0  0
  -11.7650    1.1631    5.9744 C   0  0  0  0  0  0  0  0  0  0  0  0
  -10.9085    2.1612    6.8160 C   0  0  0  0  0  0  0  0  0  0  0  0
  -10.6932    1.7597    8.2739 C   0  0  0  0  0  0  0  0  0  0  0  0
  -10.4422    0.3420    8.3289 N   0  0  0  0  0  0  0  0  0  0  0  0
  -11.6083   -0.4607    7.9643 C   0  0  0  0  0  0  0  0  0  0  0  0
  -12.5030    0.1852    6.9019 C   0  0  0  0  0  0  0  0  0  0  0  0
   -7.2572   -0.7336    7.1528 N   0  0  0  0  0  0  0  0  0  0  0  0
   -5.8478    0.8184    5.5058 H   0  0  0  0  0  0  0  0  0  0  0  0
   -5.6354   -0.6344    4.5172 H   0  0  0  0  0  0  0  0  0  0  0  0
   -4.2426    0.3623    4.9371 H   0  0  0  0  0  0  0  0  0  0  0  0
   -4.0910   -2.4924    5.4289 H   0  0  0  0  0  0  0  0  0  0  0  0
   -2.9499   -1.3329    6.1559 H   0  0  0  0  0  0  0  0  0  0  0  0
   -3.7143   -2.5686    7.1643 H   0  0  0  0  0  0  0  0  0  0  0  0
   -3.6368    1.5865    8.2055 H   0  0  0  0  0  0  0  0  0  0  0  0
   -5.9472   -3.6458    6.5149 H   0  0  0  0  0  0  0  0  0  0  0  0
   -8.6074   -3.4734    5.8744 H   0  0  0  0  0  0  0  0  0  0  0  0
   -9.2221    0.3958    6.2841 H   0  0  0  0  0  0  0  0  0  0  0  0
  -12.5412    1.7746    5.4915 H   0  0  0  0  0  0  0  0  0  0  0  0
   -9.9392    2.3460    6.3399 H   0  0  0  0  0  0  0  0  0  0  0  0
  -11.4153    3.1356    6.8124 H   0  0  0  0  0  0  0  0  0  0  0  0
   -9.8353    2.3102    8.6753 H   0  0  0  0  0  0  0  0  0  0  0  0
  -11.5593    2.0307    8.8896 H   0  0  0  0  0  0  0  0  0  0  0  0
  -10.0928    0.0413    9.2397 H   0  0  0  0  0  0  0  0  0  0  0  0
  -11.2625   -1.4295    7.5979 H   0  0  0  0  0  0  0  0  0  0  0  0
  -12.2141   -0.6551    8.8572 H   0  0  0  0  0  0  0  0  0  0  0  0
  -13.2899    0.7498    7.4213 H   0  0  0  0  0  0  0  0  0  0  0  0
  -13.0199   -0.5879    6.3211 H   0  0  0  0  0  0  0  0  0  0  0  0
  1  2  1  0
  2  3  1  0
  2  4  1  0
  4  5  2  0
  4  6  1  0
  2  7  1  0
  7  8  1  0
  8  9  2  0
  9 10  1  0
 10 11  1  0
 11 12  1  0
 12 13  2  0
 12 14  1  0
 14 15  1  0
 14 16  1  0
 14 17  1  0
 17 18  1  0
 18 19  1  0
 19 20  1  0
 20 21  1  0
 21 22  1  0
 10 23  2  0
 23  7  1  0
 22 17  1  0
  1 24  1  0
  1 25  1  0
  1 26  1  0
  3 27  1  0
  3 28  1  0
  3 29  1  0
  6 30  1  0
  8 31  1  0
  9 32  1  0
 11 33  1  0
 17 34  1  0
 18 35  1  0
 18 36  1  0
 19 37  1  0
 19 38  1  0
 20 39  1  0
 21 40  1  0
 21 41  1  0
 22 42  1  0
 22 43  1  0
M  END
>  <Energy>  (955) 
49.600145150291034

>  <compound_id>  (955) 
8568

>  <target_id>  (955) 
1

>  <reference_id>  (955) 
127

>  <inspiration_ids>  (955) 
[127, 95]

>  <energy_score>  (955) 
-38.682191899908474

>  <distance_score>  (955) 
1.9513272757351792

>  <path>  (955) 
/opt/xchem-fragalysis-2/maxwin/BulkDock/SCRATCH/511025/C8568-P127/C8568-P127.minimised.mol

>  <scratch_subdir>  (955) 
/opt/xchem-fragalysis-2/maxwin/BulkDock/SCRATCH/511025/C8568-P127

>  <fragmenstein_runtime>  (955) 
18.302100658416748

>  <fragmenstein_outcome>  (955) 
too moved

>  <fragmenstein_mode>  (955) 
expansion

>  <fragmenstein_error>  (955) 


$$$$
C8568-P95
     RDKit          3D

 43 44  0  0  0  0  0  0  0  0999 V2000
   -5.8602   -0.2042    5.2589 C   0  0  0  0  0  0  0  0  0  0  0  0
   -5.6252   -1.5749    5.9372 C   0  0  0  0  0  0  0  0  0  0  0  0
   -4.4977   -2.2951    5.2155 C   0  0  0  0  0  0  0  0  0  0  0  0
   -5.2810   -1.2654    7.3925 C   0  0  0  0  0  0  0  0  0  0  0  0
   -6.0330   -0.8212    8.2495 O   0  0  0  0  0  0  0  0  0  0  0  0
   -3.9753   -1.4472    7.7072 O   0  0  0  0  0  0  0  0  0  0  0  0
   -6.8277   -2.4086    5.8401 N   0  0  0  0  0  0  0  0  0  0  0  0
   -7.2465   -3.4972    6.5538 C   0  0  0  0  0  0  0  0  0  0  0  0
   -8.6031   -3.6040    6.2893 C   0  0  0  0  0  0  0  0  0  0  0  0
   -8.8363   -2.5686    5.3735 C   0  0  0  0  0  0  0  0  0  0  0  0
   -9.9411   -1.8223    5.1960 N   0  0  0  0  0  0  0  0  0  0  0  0
  -10.1115   -0.4024    4.5918 C   0  0  0  0  0  0  0  0  0  0  0  0
   -9.3284    0.3060    4.0840 O   0  0  0  0  0  0  0  0  0  0  0  0
  -11.5411    0.0481    4.8543 C   0  0  0  0  0  0  0  0  0  0  0  0
  -11.8846    0.9276    3.8643 F   0  0  0  0  0  0  0  0  0  0  0  0
  -12.4430   -0.9683    4.7292 F   0  0  0  0  0  0  0  0  0  0  0  0
  -11.7633    0.7246    6.2420 C   0  0  0  0  0  0  0  0  0  0  0  0
  -10.7693    1.8679    6.5723 C   0  0  0  0  0  0  0  0  0  0  0  0
   -9.7289    1.5352    7.6477 C   0  0  0  0  0  0  0  0  0  0  0  0
   -9.4068    0.1227    7.6256 N   0  0  0  0  0  0  0  0  0  0  0  0
  -10.5396   -0.6844    8.0583 C   0  0  0  0  0  0  0  0  0  0  0  0
  -11.8696   -0.2497    7.4353 C   0  0  0  0  0  0  0  0  0  0  0  0
   -7.6924   -2.1394    4.8605 N   0  0  0  0  0  0  0  0  0  0  0  0
   -6.6026    0.3951    5.7991 H   0  0  0  0  0  0  0  0  0  0  0  0
   -6.2025   -0.3058    4.2220 H   0  0  0  0  0  0  0  0  0  0  0  0
   -4.9430    0.3744    5.1950 H   0  0  0  0  0  0  0  0  0  0  0  0
   -4.7830   -2.5624    4.1913 H   0  0  0  0  0  0  0  0  0  0  0  0
   -3.6025   -1.6685    5.1506 H   0  0  0  0  0  0  0  0  0  0  0  0
   -4.2343   -3.2181    5.7380 H   0  0  0  0  0  0  0  0  0  0  0  0
   -3.8716   -1.1514    8.6390 H   0  0  0  0  0  0  0  0  0  0  0  0
   -6.6133   -4.0047    7.2559 H   0  0  0  0  0  0  0  0  0  0  0  0
   -9.3165   -4.1997    6.8326 H   0  0  0  0  0  0  0  0  0  0  0  0
  -10.8517   -2.1827    5.4816 H   0  0  0  0  0  0  0  0  0  0  0  0
  -12.7535    1.1941    6.1470 H   0  0  0  0  0  0  0  0  0  0  0  0
  -10.2661    2.2026    5.6577 H   0  0  0  0  0  0  0  0  0  0  0  0
  -11.3415    2.7371    6.9231 H   0  0  0  0  0  0  0  0  0  0  0  0
   -8.8239    2.1243    7.4613 H   0  0  0  0  0  0  0  0  0  0  0  0
  -10.0933    1.8315    8.6393 H   0  0  0  0  0  0  0  0  0  0  0  0
   -8.5947   -0.0802    8.2120 H   0  0  0  0  0  0  0  0  0  0  0  0
  -10.3428   -1.7307    7.8170 H   0  0  0  0  0  0  0  0  0  0  0  0
  -10.6266   -0.6442    9.1516 H   0  0  0  0  0  0  0  0  0  0  0  0
  -12.4459    0.2626    8.2187 H   0  0  0  0  0  0  0  0  0  0  0  0
  -12.4606   -1.1321    7.1632 H   0  0  0  0  0  0  0  0  0  0  0  0
  1  2  1  0
  2  3  1  0
  2  4  1  0
  4  5  2  0
  4  6  1  0
  2  7  1  0
  7  8  1  0
  8  9  2  0
  9 10  1  0
 10 11  1  0
 11 12  1  0
 12 13  2  0
 12 14  1  0
 14 15  1  0
 14 16  1  0
 14 17  1  0
 17 18  1  0
 18 19  1  0
 19 20  1  0
 20 21  1  0
 21 22  1  0
 10 23  2  0
 23  7  1  0
 22 17  1  0
  1 24  1  0
  1 25  1  0
  1 26  1  0
  3 27  1  0
  3 28  1  0
  3 29  1  0
  6 30  1  0
  8 31  1  0
  9 32  1  0
 11 33  1  0
 17 34  1  0
 18 35  1  0
 18 36  1  0
 19 37  1  0
 19 38  1  0
 20 39  1  0
 21 40  1  0
 21 41  1  0
 22 42  1  0
 22 43  1  0
M  END
>  <Energy>  (956) 
53.031846141644436

>  <compound_id>  (956) 
8568

>  <target_id>  (956) 
1

>  <reference_id>  (956) 
95

>  <inspiration_ids>  (956) 
[127, 95]

>  <energy_score>  (956) 
-35.25049090855589

>  <distance_score>  (956) 
1.9353528529446915

>  <path>  (956) 
/opt/xchem-fragalysis-2/maxwin/BulkDock/SCRATCH/511025/C8568-P95/C8568-P95.minimised.mol

>  <scratch_subdir>  (956) 
/opt/xchem-fragalysis-2/maxwin/BulkDock/SCRATCH/511025/C8568-P95

>  <fragmenstein_runtime>  (956) 
21.92115330696106

>  <fragmenstein_outcome>  (956) 
too moved

>  <fragmenstein_mode>  (956) 
expansion

>  <fragmenstein_error>  (956) 


$$$$
C49528-P127
     RDKit          3D

 41 42  0  0  0  0  0  0  0  0999 V2000
   -5.8312    0.1851    5.4340 C   0  0  0  0  0  0  0  0  0  0  0  0
   -5.6333   -1.1710    6.1341 C   0  0  0  0  0  0  0  0  0  0  0  0
   -4.6387   -2.0075    5.3263 C   0  0  0  0  0  0  0  0  0  0  0  0
   -5.0732   -0.8460    7.5192 C   0  0  0  0  0  0  0  0  0  0  0  0
   -5.7004   -0.5223    8.5163 O   0  0  0  0  0  0  0  0  0  0  0  0
   -3.7203   -0.8570    7.5895 O   0  0  0  0  0  0  0  0  0  0  0  0
   -6.8858   -1.9213    6.2795 N   0  0  0  0  0  0  0  0  0  0  0  0
   -7.0323   -3.1839    6.7839 C   0  0  0  0  0  0  0  0  0  0  0  0
   -8.3644   -3.3132    7.0853 C   0  0  0  0  0  0  0  0  0  0  0  0
   -8.9575   -2.1459    6.5795 C   0  0  0  0  0  0  0  0  0  0  0  0
  -10.2262   -1.7465    6.8224 N   0  0  0  0  0  0  0  0  0  0  0  0
  -11.1226   -0.7293    6.0710 C   0  0  0  0  0  0  0  0  0  0  0  0
  -10.9314   -0.1371    5.0816 O   0  0  0  0  0  0  0  0  0  0  0  0
  -12.3543   -0.5111    6.9268 C   0  0  0  0  0  0  0  0  0  0  0  0
  -12.0659    0.5941    7.9669 C   0  0  0  0  0  0  0  0  0  0  0  0
  -11.8971    1.9686    7.2727 C   0  0  0  0  0  0  0  0  0  0  0  0
  -11.3564    3.2556    8.4355 S   0  0  0  0  0  0  0  0  0  0  0  0
   -9.8738    2.4184    9.0989 C   0  0  0  0  0  0  0  0  0  0  0  0
   -9.7372    0.9494    8.6901 C   0  0  0  0  0  0  0  0  0  0  0  0
  -10.9789    0.1806    8.8909 N   0  0  0  0  0  0  0  0  0  0  0  0
   -8.0685   -1.3691    5.9587 N   0  0  0  0  0  0  0  0  0  0  0  0
   -6.2391    0.0589    4.4244 H   0  0  0  0  0  0  0  0  0  0  0  0
   -6.5145    0.8352    5.9942 H   0  0  0  0  0  0  0  0  0  0  0  0
   -4.8822    0.7269    5.3441 H   0  0  0  0  0  0  0  0  0  0  0  0
   -3.7485   -1.4159    5.0933 H   0  0  0  0  0  0  0  0  0  0  0  0
   -4.3059   -2.8932    5.8767 H   0  0  0  0  0  0  0  0  0  0  0  0
   -5.0748   -2.3450    4.3795 H   0  0  0  0  0  0  0  0  0  0  0  0
   -3.5163   -0.6422    8.5254 H   0  0  0  0  0  0  0  0  0  0  0  0
   -6.1899   -3.8231    6.9754 H   0  0  0  0  0  0  0  0  0  0  0  0
   -8.8389   -4.1229    7.6144 H   0  0  0  0  0  0  0  0  0  0  0  0
  -10.7402   -2.1351    7.6123 H   0  0  0  0  0  0  0  0  0  0  0  0
  -12.6658   -1.4429    7.4108 H   0  0  0  0  0  0  0  0  0  0  0  0
  -13.1821   -0.2177    6.2699 H   0  0  0  0  0  0  0  0  0  0  0  0
  -12.9732    0.6619    8.5841 H   0  0  0  0  0  0  0  0  0  0  0  0
  -12.8519    2.2822    6.8369 H   0  0  0  0  0  0  0  0  0  0  0  0
  -11.1665    1.9445    6.4597 H   0  0  0  0  0  0  0  0  0  0  0  0
   -8.9916    2.9774    8.7720 H   0  0  0  0  0  0  0  0  0  0  0  0
   -9.9308    2.4964   10.1896 H   0  0  0  0  0  0  0  0  0  0  0  0
   -9.3896    0.8734    7.6540 H   0  0  0  0  0  0  0  0  0  0  0  0
   -8.9507    0.4895    9.2994 H   0  0  0  0  0  0  0  0  0  0  0  0
  -11.2867    0.3455    9.8504 H   0  0  0  0  0  0  0  0  0  0  0  0
  1  2  1  0
  2  3  1  0
  2  4  1  0
  4  5  2  0
  4  6  1  0
  2  7  1  0
  7  8  1  0
  8  9  2  0
  9 10  1  0
 10 11  1  0
 11 12  1  0
 12 13  2  0
 12 14  1  0
 14 15  1  0
 15 16  1  0
 16 17  1  0
 17 18  1  0
 18 19  1  0
 19 20  1  0
 10 21  2  0
 21  7  1  0
 20 15  1  0
  1 22  1  0
  1 23  1  0
  1 24  1  0
  3 25  1  0
  3 26  1  0
  3 27  1  0
  6 28  1  0
  8 29  1  0
  9 30  1  0
 11 31  1  0
 14 32  1  0
 14 33  1  0
 15 34  1  0
 16 35  1  0
 16 36  1  0
 18 37  1  0
 18 38  1  0
 19 39  1  0
 19 40  1  0
 20 41  1  0
M  END
>  <Energy>  (957) 
38.082627624856286

>  <compound_id>  (957) 
49528

>  <target_id>  (957) 
1

>  <reference_id>  (957) 
127

>  <inspiration_ids>  (957) 
[127, 95]

>  <energy_score>  (957) 
-39.748204187437835

>  <distance_score>  (957) 
2.2049967066567966

>  <path>  (957) 
/opt/xchem-fragalysis-2/maxwin/BulkDock/SCRATCH/511025/C49528-P127/C49528-P127.minimised.mol

>  <scratch_subdir>  (957) 
/opt/xchem-fragalysis-2/maxwin/BulkDock/SCRATCH/511025/C49528-P127

>  <fragmenstein_runtime>  (957) 
5.883978843688965

>  <fragmenstein_outcome>  (957) 
too moved

>  <fragmenstein_mode>  (957) 
expansion

>  <fragmenstein_error>  (957) 


$$$$
C49528-P95
     RDKit          3D

 41 42  0  0  0  0  0  0  0  0999 V2000
   -5.8555   -0.0140    5.1127 C   0  0  0  0  0  0  0  0  0  0  0  0
   -5.6058   -1.3090    5.9126 C   0  0  0  0  0  0  0  0  0  0  0  0
   -4.6178   -2.1656    5.1151 C   0  0  0  0  0  0  0  0  0  0  0  0
   -5.0441   -0.9091    7.2844 C   0  0  0  0  0  0  0  0  0  0  0  0
   -5.5162   -0.0883    8.0611 O   0  0  0  0  0  0  0  0  0  0  0  0
   -3.8911   -1.5301    7.6275 O   0  0  0  0  0  0  0  0  0  0  0  0
   -6.8494   -2.0571    6.1216 N   0  0  0  0  0  0  0  0  0  0  0  0
   -6.9882   -3.2970    6.6763 C   0  0  0  0  0  0  0  0  0  0  0  0
   -8.3234   -3.4360    6.9631 C   0  0  0  0  0  0  0  0  0  0  0  0
   -8.9195   -2.2827    6.4286 C   0  0  0  0  0  0  0  0  0  0  0  0
  -10.1859   -1.8730    6.6515 N   0  0  0  0  0  0  0  0  0  0  0  0
  -11.0395   -0.7992    5.9271 C   0  0  0  0  0  0  0  0  0  0  0  0
  -10.8051   -0.1586    4.9772 O   0  0  0  0  0  0  0  0  0  0  0  0
  -12.2928   -0.6066    6.7565 C   0  0  0  0  0  0  0  0  0  0  0  0
  -12.0201    0.4560    7.8479 C   0  0  0  0  0  0  0  0  0  0  0  0
  -11.8252    1.8598    7.2217 C   0  0  0  0  0  0  0  0  0  0  0  0
  -11.2879    3.0836    8.4569 S   0  0  0  0  0  0  0  0  0  0  0  0
   -9.8025    2.2129    9.0731 C   0  0  0  0  0  0  0  0  0  0  0  0
   -9.6990    0.7519    8.6238 C   0  0  0  0  0  0  0  0  0  0  0  0
  -10.9604    0.0037    8.7881 N   0  0  0  0  0  0  0  0  0  0  0  0
   -8.0320   -1.5144    5.8012 N   0  0  0  0  0  0  0  0  0  0  0  0
   -4.9188    0.4681    4.8218 H   0  0  0  0  0  0  0  0  0  0  0  0
   -6.3969   -0.2180    4.1805 H   0  0  0  0  0  0  0  0  0  0  0  0
   -6.4394    0.7178    5.6834 H   0  0  0  0  0  0  0  0  0  0  0  0
   -3.6936   -1.6143    4.9092 H   0  0  0  0  0  0  0  0  0  0  0  0
   -4.3423   -3.0792    5.6493 H   0  0  0  0  0  0  0  0  0  0  0  0
   -5.0449   -2.4689    4.1518 H   0  0  0  0  0  0  0  0  0  0  0  0
   -3.6522   -1.1688    8.5111 H   0  0  0  0  0  0  0  0  0  0  0  0
   -6.1397   -3.9177    6.8958 H   0  0  0  0  0  0  0  0  0  0  0  0
   -8.7922   -4.2374    7.5114 H   0  0  0  0  0  0  0  0  0  0  0  0
  -10.7296   -2.2908    7.3985 H   0  0  0  0  0  0  0  0  0  0  0  0
  -12.6213   -1.5529    7.2014 H   0  0  0  0  0  0  0  0  0  0  0  0
  -13.1015   -0.2818    6.0910 H   0  0  0  0  0  0  0  0  0  0  0  0
  -12.9427    0.5041    8.4439 H   0  0  0  0  0  0  0  0  0  0  0  0
  -12.7698    2.2051    6.7878 H   0  0  0  0  0  0  0  0  0  0  0  0
  -11.0821    1.8664    6.4200 H   0  0  0  0  0  0  0  0  0  0  0  0
   -8.9170    2.7650    8.7430 H   0  0  0  0  0  0  0  0  0  0  0  0
   -9.8321    2.2645   10.1668 H   0  0  0  0  0  0  0  0  0  0  0  0
   -9.3410    0.6983    7.5899 H   0  0  0  0  0  0  0  0  0  0  0  0
   -8.9290    0.2573    9.2273 H   0  0  0  0  0  0  0  0  0  0  0  0
  -11.2832    0.1652    9.7431 H   0  0  0  0  0  0  0  0  0  0  0  0
  1  2  1  0
  2  3  1  0
  2  4  1  0
  4  5  2  0
  4  6  1  0
  2  7  1  0
  7  8  1  0
  8  9  2  0
  9 10  1  0
 10 11  1  0
 11 12  1  0
 12 13  2  0
 12 14  1  0
 14 15  1  0
 15 16  1  0
 16 17  1  0
 17 18  1  0
 18 19  1  0
 19 20  1  0
 10 21  2  0
 21  7  1  0
 20 15  1  0
  1 22  1  0
  1 23  1  0
  1 24  1  0
  3 25  1  0
  3 26  1  0
  3 27  1  0
  6 28  1  0
  8 29  1  0
  9 30  1  0
 11 31  1  0
 14 32  1  0
 14 33  1  0
 15 34  1  0
 16 35  1  0
 16 36  1  0
 18 37  1  0
 18 38  1  0
 19 39  1  0
 19 40  1  0
 20 41  1  0
M  END
>  <Energy>  (958) 
37.707936761577564

>  <compound_id>  (958) 
49528

>  <target_id>  (958) 
1

>  <reference_id>  (958) 
95

>  <inspiration_ids>  (958) 
[127, 95]

>  <energy_score>  (958) 
-40.122895050717574

>  <distance_score>  (958) 
2.1958437605467043

>  <path>  (958) 
/opt/xchem-fragalysis-2/maxwin/BulkDock/SCRATCH/511025/C49528-P95/C49528-P95.minimised.mol

>  <scratch_subdir>  (958) 
/opt/xchem-fragalysis-2/maxwin/BulkDock/SCRATCH/511025/C49528-P95

>  <fragmenstein_runtime>  (958) 
6.921649932861328

>  <fragmenstein_outcome>  (958) 
too moved

>  <fragmenstein_mode>  (958) 
expansion

>  <fragmenstein_error>  (958) 


$$$$
C49529-P127
     RDKit          3D

 49 50  0  0  0  0  0  0  0  0999 V2000
   -9.6220    0.0693    3.9390 C   0  0  0  0  0  0  0  0  0  0  0  0
  -10.2736   -1.1127    4.6715 C   0  0  0  0  0  0  0  0  0  0  0  0
  -10.9873   -1.9845    3.6118 C   0  0  0  0  0  0  0  0  0  0  0  0
  -11.3715   -0.5194    5.6237 C   0  0  0  0  0  0  0  0  0  0  0  0
  -12.5068   -0.7613    5.4787 O   0  0  0  0  0  0  0  0  0  0  0  0
  -10.6565    0.3683    6.6858 N   0  0  0  0  0  0  0  0  0  0  0  0
  -11.1525    1.0172    7.7686 C   0  0  0  0  0  0  0  0  0  0  0  0
  -10.3750    1.6411    8.7643 C   0  0  0  0  0  0  0  0  0  0  0  0
  -11.2840    2.0638    9.7043 C   0  0  0  0  0  0  0  0  0  0  0  0
  -12.5107    1.6475    9.2626 N   0  0  0  0  0  0  0  0  0  0  0  0
  -13.8140    1.7692    9.9281 C   0  0  0  0  0  0  0  0  0  0  0  0
  -14.7761    0.6413    9.4833 C   0  0  0  0  0  0  0  0  0  0  0  0
  -14.4493    3.1204    9.5589 C   0  0  0  0  0  0  0  0  0  0  0  0
  -13.6324    1.6308   11.4414 C   0  0  0  0  0  0  0  0  0  0  0  0
  -13.5798    0.5892   12.0801 O   0  0  0  0  0  0  0  0  0  0  0  0
  -13.4824    2.8051   12.0967 O   0  0  0  0  0  0  0  0  0  0  0  0
  -12.4502    1.1230    8.0274 N   0  0  0  0  0  0  0  0  0  0  0  0
   -9.1871   -1.9256    5.4499 C   0  0  0  0  0  0  0  0  0  0  0  0
   -9.7319   -3.1238    6.2237 C   0  0  0  0  0  0  0  0  0  0  0  0
   -8.6309   -3.7239    7.1032 C   0  0  0  0  0  0  0  0  0  0  0  0
   -7.2289   -3.2522    6.7187 C   0  0  0  0  0  0  0  0  0  0  0  0
   -7.0406   -3.2753    5.2706 N   0  0  0  0  0  0  0  0  0  0  0  0
   -7.9941   -2.3944    4.5800 C   0  0  0  0  0  0  0  0  0  0  0  0
   -8.9432    0.6386    4.5829 H   0  0  0  0  0  0  0  0  0  0  0  0
  -10.3803    0.7712    3.5711 H   0  0  0  0  0  0  0  0  0  0  0  0
   -9.0435   -0.2619    3.0693 H   0  0  0  0  0  0  0  0  0  0  0  0
  -11.5192   -2.8245    4.0704 H   0  0  0  0  0  0  0  0  0  0  0  0
  -10.2918   -2.3885    2.8705 H   0  0  0  0  0  0  0  0  0  0  0  0
  -11.7341   -1.3994    3.0610 H   0  0  0  0  0  0  0  0  0  0  0  0
   -9.6634    0.2935    6.5718 H   0  0  0  0  0  0  0  0  0  0  0  0
   -9.3011    1.7428    8.8146 H   0  0  0  0  0  0  0  0  0  0  0  0
  -11.1480    2.5793   10.6447 H   0  0  0  0  0  0  0  0  0  0  0  0
  -14.3305   -0.3480    9.6419 H   0  0  0  0  0  0  0  0  0  0  0  0
  -15.7096    0.6739   10.0578 H   0  0  0  0  0  0  0  0  0  0  0  0
  -15.0395    0.7206    8.4223 H   0  0  0  0  0  0  0  0  0  0  0  0
  -13.7912    3.9607    9.8105 H   0  0  0  0  0  0  0  0  0  0  0  0
  -15.3956    3.2718   10.0909 H   0  0  0  0  0  0  0  0  0  0  0  0
  -14.6527    3.1842    8.4835 H   0  0  0  0  0  0  0  0  0  0  0  0
  -13.3123    2.5570   13.0329 H   0  0  0  0  0  0  0  0  0  0  0  0
   -8.7483   -1.2534    6.1943 H   0  0  0  0  0  0  0  0  0  0  0  0
  -10.0904   -3.8940    5.5302 H   0  0  0  0  0  0  0  0  0  0  0  0
  -10.5859   -2.8393    6.8435 H   0  0  0  0  0  0  0  0  0  0  0  0
   -8.8156   -3.4703    8.1525 H   0  0  0  0  0  0  0  0  0  0  0  0
   -8.6849   -4.8134    7.0280 H   0  0  0  0  0  0  0  0  0  0  0  0
   -7.0189   -2.2529    7.1184 H   0  0  0  0  0  0  0  0  0  0  0  0
   -6.4923   -3.9144    7.1715 H   0  0  0  0  0  0  0  0  0  0  0  0
   -7.2273   -4.2429    4.9852 H   0  0  0  0  0  0  0  0  0  0  0  0
   -8.3402   -2.9169    3.6829 H   0  0  0  0  0  0  0  0  0  0  0  0
   -7.4312   -1.5209    4.2334 H   0  0  0  0  0  0  0  0  0  0  0  0
  1  2  1  0
  2  3  1  0
  2  4  1  0
  4  5  2  0
  4  6  1  0
  6  7  1  0
  7  8  1  0
  8  9  2  0
  9 10  1  0
 10 11  1  0
 11 12  1  0
 11 13  1  0
 11 14  1  0
 14 15  2  0
 14 16  1  0
 10 17  1  0
  2 18  1  0
 18 19  1  0
 19 20  1  0
 20 21  1  0
 21 22  1  0
 22 23  1  0
 17  7  2  0
 23 18  1  0
  1 24  1  0
  1 25  1  0
  1 26  1  0
  3 27  1  0
  3 28  1  0
  3 29  1  0
  6 30  1  0
  8 31  1  0
  9 32  1  0
 12 33  1  0
 12 34  1  0
 12 35  1  0
 13 36  1  0
 13 37  1  0
 13 38  1  0
 16 39  1  0
 18 40  1  0
 19 41  1  0
 19 42  1  0
 20 43  1  0
 20 44  1  0
 21 45  1  0
 21 46  1  0
 22 47  1  0
 23 48  1  0
 23 49  1  0
M  END
>  <Energy>  (959) 
6.8750462442885967

>  <compound_id>  (959) 
49529

>  <target_id>  (959) 
1

>  <reference_id>  (959) 
127

>  <inspiration_ids>  (959) 
[127, 95]

>  <energy_score>  (959) 
-60.22447748604596

>  <distance_score>  (959) 
1.7961610834833444

>  <path>  (959) 
/opt/xchem-fragalysis-2/maxwin/BulkDock/SCRATCH/511025/C49529-P127/C49529-P127.minimised.mol

>  <scratch_subdir>  (959) 
/opt/xchem-fragalysis-2/maxwin/BulkDock/SCRATCH/511025/C49529-P127

>  <fragmenstein_runtime>  (959) 
12.042333126068115

>  <fragmenstein_outcome>  (959) 
too moved

>  <fragmenstein_mode>  (959) 
expansion

>  <fragmenstein_error>  (959) 


$$$$
C49529-P95
     RDKit          3D

 49 50  0  0  0  0  0  0  0  0999 V2000
   -8.6387    0.6508    4.4367 C   0  0  0  0  0  0  0  0  0  0  0  0
   -9.5589   -0.5342    4.7435 C   0  0  0  0  0  0  0  0  0  0  0  0
  -10.0911   -1.0440    3.3921 C   0  0  0  0  0  0  0  0  0  0  0  0
  -10.7849    0.0156    5.5465 C   0  0  0  0  0  0  0  0  0  0  0  0
  -11.8628    0.0282    5.0917 O   0  0  0  0  0  0  0  0  0  0  0  0
  -10.2618    0.5413    6.9145 N   0  0  0  0  0  0  0  0  0  0  0  0
  -10.9312    1.0678    7.9691 C   0  0  0  0  0  0  0  0  0  0  0  0
  -10.3387    1.5283    9.1594 C   0  0  0  0  0  0  0  0  0  0  0  0
  -11.3945    1.9204    9.9478 C   0  0  0  0  0  0  0  0  0  0  0  0
  -12.5294    1.6437    9.2364 N   0  0  0  0  0  0  0  0  0  0  0  0
  -13.9382    1.7820    9.6318 C   0  0  0  0  0  0  0  0  0  0  0  0
  -14.7282    0.5024    9.2858 C   0  0  0  0  0  0  0  0  0  0  0  0
  -14.5637    2.9698    8.8762 C   0  0  0  0  0  0  0  0  0  0  0  0
  -14.0591    2.0509   11.1291 C   0  0  0  0  0  0  0  0  0  0  0  0
  -14.2773    3.1318   11.6594 O   0  0  0  0  0  0  0  0  0  0  0  0
  -13.8607    0.9717   11.9185 O   0  0  0  0  0  0  0  0  0  0  0  0
  -12.2513    1.2062    7.9960 N   0  0  0  0  0  0  0  0  0  0  0  0
   -8.7683   -1.6420    5.5161 C   0  0  0  0  0  0  0  0  0  0  0  0
   -9.6193   -2.8070    6.0259 C   0  0  0  0  0  0  0  0  0  0  0  0
   -8.7795   -3.7088    6.9331 C   0  0  0  0  0  0  0  0  0  0  0  0
   -7.2800   -3.5248    6.7259 C   0  0  0  0  0  0  0  0  0  0  0  0
   -6.9436   -3.4077    5.3133 N   0  0  0  0  0  0  0  0  0  0  0  0
   -7.5702   -2.2236    4.7140 C   0  0  0  0  0  0  0  0  0  0  0  0
   -8.0751    0.9846    5.3143 H   0  0  0  0  0  0  0  0  0  0  0  0
   -9.2114    1.5144    4.0770 H   0  0  0  0  0  0  0  0  0  0  0  0
   -7.9046    0.4063    3.6606 H   0  0  0  0  0  0  0  0  0  0  0  0
  -10.6884   -0.2810    2.8780 H   0  0  0  0  0  0  0  0  0  0  0  0
  -10.7356   -1.9026    3.5588 H   0  0  0  0  0  0  0  0  0  0  0  0
   -9.2969   -1.3341    2.6990 H   0  0  0  0  0  0  0  0  0  0  0  0
   -9.2634    0.4445    6.9517 H   0  0  0  0  0  0  0  0  0  0  0  0
   -9.2914    1.5626    9.4199 H   0  0  0  0  0  0  0  0  0  0  0  0
  -11.4167    2.3345   10.9459 H   0  0  0  0  0  0  0  0  0  0  0  0
  -14.8047    0.3494    8.2031 H   0  0  0  0  0  0  0  0  0  0  0  0
  -14.2485   -0.3889    9.7074 H   0  0  0  0  0  0  0  0  0  0  0  0
  -15.7474    0.5483    9.6869 H   0  0  0  0  0  0  0  0  0  0  0  0
  -14.0137    3.8988    9.0693 H   0  0  0  0  0  0  0  0  0  0  0  0
  -15.6032    3.1326    9.1842 H   0  0  0  0  0  0  0  0  0  0  0  0
  -14.5585    2.8081    7.7921 H   0  0  0  0  0  0  0  0  0  0  0  0
  -13.9257    1.3282   12.8307 H   0  0  0  0  0  0  0  0  0  0  0  0
   -8.3327   -1.1641    6.4030 H   0  0  0  0  0  0  0  0  0  0  0  0
   -9.9725   -3.4015    5.1762 H   0  0  0  0  0  0  0  0  0  0  0  0
  -10.5015   -2.4649    6.5760 H   0  0  0  0  0  0  0  0  0  0  0  0
   -9.0093   -3.4977    7.9826 H   0  0  0  0  0  0  0  0  0  0  0  0
   -9.0559   -4.7524    6.7509 H   0  0  0  0  0  0  0  0  0  0  0  0
   -6.9055   -2.6525    7.2738 H   0  0  0  0  0  0  0  0  0  0  0  0
   -6.7686   -4.3888    7.1397 H   0  0  0  0  0  0  0  0  0  0  0  0
   -7.3033   -4.2514    4.8592 H   0  0  0  0  0  0  0  0  0  0  0  0
   -7.8646   -2.5030    3.6989 H   0  0  0  0  0  0  0  0  0  0  0  0
   -6.7969   -1.4538    4.6138 H   0  0  0  0  0  0  0  0  0  0  0  0
  1  2  1  0
  2  3  1  0
  2  4  1  0
  4  5  2  0
  4  6  1  0
  6  7  1  0
  7  8  1  0
  8  9  2  0
  9 10  1  0
 10 11  1  0
 11 12  1  0
 11 13  1  0
 11 14  1  0
 14 15  2  0
 14 16  1  0
 10 17  1  0
  2 18  1  0
 18 19  1  0
 19 20  1  0
 20 21  1  0
 21 22  1  0
 22 23  1  0
 17  7  2  0
 23 18  1  0
  1 24  1  0
  1 25  1  0
  1 26  1  0
  3 27  1  0
  3 28  1  0
  3 29  1  0
  6 30  1  0
  8 31  1  0
  9 32  1  0
 12 33  1  0
 12 34  1  0
 12 35  1  0
 13 36  1  0
 13 37  1  0
 13 38  1  0
 16 39  1  0
 18 40  1  0
 19 41  1  0
 19 42  1  0
 20 43  1  0
 20 44  1  0
 21 45  1  0
 21 46  1  0
 22 47  1  0
 23 48  1  0
 23 49  1  0
M  END
>  <Energy>  (960) 
6.1923973064667397

>  <compound_id>  (960) 
49529

>  <target_id>  (960) 
1

>  <reference_id>  (960) 
95

>  <inspiration_ids>  (960) 
[127, 95]

>  <energy_score>  (960) 
-60.907126423865506

>  <distance_score>  (960) 
1.9810165768989858

>  <path>  (960) 
/opt/xchem-fragalysis-2/maxwin/BulkDock/SCRATCH/511025/C49529-P95/C49529-P95.minimised.mol

>  <scratch_subdir>  (960) 
/opt/xchem-fragalysis-2/maxwin/BulkDock/SCRATCH/511025/C49529-P95

>  <fragmenstein_runtime>  (960) 
13.17362666130066

>  <fragmenstein_outcome>  (960) 
too moved

>  <fragmenstein_mode>  (960) 
expansion

>  <fragmenstein_error>  (960) 


$$$$
C51126-P127
     RDKit          3D

 44 46  0  0  0  0  0  0  0  0999 V2000
  -13.2719    3.1807   10.3478 C   0  0  0  0  0  0  0  0  0  0  0  0
  -13.2695    1.7152    9.8740 C   0  0  0  0  0  0  0  0  0  0  0  0
  -14.4248    1.5362    8.8672 C   0  0  0  0  0  0  0  0  0  0  0  0
  -13.5443    0.8257   11.0964 C   0  0  0  0  0  0  0  0  0  0  0  0
  -14.6640    0.4361   11.4133 O   0  0  0  0  0  0  0  0  0  0  0  0
  -12.4724    0.5321   11.8706 O   0  0  0  0  0  0  0  0  0  0  0  0
  -11.9653    1.3765    9.2830 N   0  0  0  0  0  0  0  0  0  0  0  0
  -11.6934    0.7915    8.0789 C   0  0  0  0  0  0  0  0  0  0  0  0
  -10.3470    0.5451    8.0798 C   0  0  0  0  0  0  0  0  0  0  0  0
   -9.6756   -0.1149    7.1080 N   0  0  0  0  0  0  0  0  0  0  0  0
   -8.2340   -0.7044    7.0970 C   0  0  0  0  0  0  0  0  0  0  0  0
   -7.3833   -0.6408    7.8974 O   0  0  0  0  0  0  0  0  0  0  0  0
   -8.1098   -1.4742    5.7339 C   0  0  0  0  0  0  0  0  0  0  0  0
   -7.7902   -0.5017    4.6183 C   0  0  0  0  0  0  0  0  0  0  0  0
   -6.2665   -0.2719    4.8092 C   0  0  0  0  0  0  0  0  0  0  0  0
   -5.7410   -1.4940    5.5838 C   0  0  0  0  0  0  0  0  0  0  0  0
   -6.9179   -2.3215    5.6093 N   0  0  0  0  0  0  0  0  0  0  0  0
   -7.0580   -3.4581    6.4842 C   0  0  0  0  0  0  0  0  0  0  0  0
   -8.5800   -3.6250    6.5826 C   0  0  0  0  0  0  0  0  0  0  0  0
   -9.1460   -2.5837    5.6033 C   0  0  0  0  0  0  0  0  0  0  0  0
   -9.8666    1.0394    9.2967 C   0  0  0  0  0  0  0  0  0  0  0  0
  -10.8489    1.5582   10.0407 N   0  0  0  0  0  0  0  0  0  0  0  0
  -12.5283    3.3579   11.1338 H   0  0  0  0  0  0  0  0  0  0  0  0
  -14.2458    3.4593   10.7672 H   0  0  0  0  0  0  0  0  0  0  0  0
  -13.0498    3.8647    9.5206 H   0  0  0  0  0  0  0  0  0  0  0  0
  -14.5330    0.4882    8.5628 H   0  0  0  0  0  0  0  0  0  0  0  0
  -14.2692    2.1395    7.9653 H   0  0  0  0  0  0  0  0  0  0  0  0
  -15.3845    1.8405    9.3022 H   0  0  0  0  0  0  0  0  0  0  0  0
  -11.6234    0.9033   11.5127 H   0  0  0  0  0  0  0  0  0  0  0  0
  -12.4621    0.5472    7.3601 H   0  0  0  0  0  0  0  0  0  0  0  0
  -10.1758   -0.4297    6.2882 H   0  0  0  0  0  0  0  0  0  0  0  0
   -7.9799   -0.9414    3.6309 H   0  0  0  0  0  0  0  0  0  0  0  0
   -8.3366    0.4446    4.6789 H   0  0  0  0  0  0  0  0  0  0  0  0
   -5.7737   -0.1636    3.8372 H   0  0  0  0  0  0  0  0  0  0  0  0
   -6.0889    0.6440    5.3846 H   0  0  0  0  0  0  0  0  0  0  0  0
   -4.9196   -1.9778    5.0461 H   0  0  0  0  0  0  0  0  0  0  0  0
   -5.3773   -1.2061    6.5752 H   0  0  0  0  0  0  0  0  0  0  0  0
   -6.6250   -3.2769    7.4624 H   0  0  0  0  0  0  0  0  0  0  0  0
   -6.5941   -4.3438    6.0490 H   0  0  0  0  0  0  0  0  0  0  0  0
   -8.9247   -4.6332    6.3525 H   0  0  0  0  0  0  0  0  0  0  0  0
   -8.9108   -3.3977    7.6038 H   0  0  0  0  0  0  0  0  0  0  0  0
   -9.1680   -2.9945    4.5849 H   0  0  0  0  0  0  0  0  0  0  0  0
  -10.1736   -2.3308    5.8715 H   0  0  0  0  0  0  0  0  0  0  0  0
   -8.8550    1.0185    9.6802 H   0  0  0  0  0  0  0  0  0  0  0  0
  1  2  1  0
  2  3  1  0
  2  4  1  0
  4  5  2  0
  4  6  1  0
  2  7  1  0
  7  8  1  0
  8  9  2  0
  9 10  1  0
 10 11  1  0
 11 12  2  0
 11 13  1  0
 13 14  1  0
 14 15  1  0
 15 16  1  0
 16 17  1  0
 17 18  1  0
 18 19  1  0
 19 20  1  0
  9 21  1  0
 21 22  2  0
 22  7  1  0
 17 13  1  0
 20 13  1  0
  1 23  1  0
  1 24  1  0
  1 25  1  0
  3 26  1  0
  3 27  1  0
  3 28  1  0
  6 29  1  0
  8 30  1  0
 10 31  1  0
 14 32  1  0
 14 33  1  0
 15 34  1  0
 15 35  1  0
 16 36  1  0
 16 37  1  0
 18 38  1  0
 18 39  1  0
 19 40  1  0
 19 41  1  0
 20 42  1  0
 20 43  1  0
 21 44  1  0
M  END
>  <Energy>  (961) 
74.361243493697614

>  <compound_id>  (961) 
51126

>  <target_id>  (961) 
1

>  <reference_id>  (961) 
127

>  <inspiration_ids>  (961) 
[127, 95]

>  <energy_score>  (961) 
-26.46084822026367

>  <distance_score>  (961) 
1.7282746130674194

>  <path>  (961) 
/opt/xchem-fragalysis-2/maxwin/BulkDock/SCRATCH/511025/C51126-P127/C51126-P127.minimised.mol

>  <scratch_subdir>  (961) 
/opt/xchem-fragalysis-2/maxwin/BulkDock/SCRATCH/511025/C51126-P127

>  <fragmenstein_runtime>  (961) 
23.822472095489502

>  <fragmenstein_outcome>  (961) 
too moved

>  <fragmenstein_mode>  (961) 
expansion

>  <fragmenstein_error>  (961) 


$$$$
C51126-P95
     RDKit          3D

 44 46  0  0  0  0  0  0  0  0999 V2000
  -13.9176    0.4719    9.5918 C   0  0  0  0  0  0  0  0  0  0  0  0
  -12.8333    1.3541   10.2474 C   0  0  0  0  0  0  0  0  0  0  0  0
  -12.5527    0.8602   11.6764 C   0  0  0  0  0  0  0  0  0  0  0  0
  -13.4419    2.7625   10.3858 C   0  0  0  0  0  0  0  0  0  0  0  0
  -14.5404    2.9491   10.9075 O   0  0  0  0  0  0  0  0  0  0  0  0
  -12.7293    3.8214    9.9480 O   0  0  0  0  0  0  0  0  0  0  0  0
  -11.5921    1.2664    9.4477 N   0  0  0  0  0  0  0  0  0  0  0  0
  -10.9541    0.1165    9.0564 C   0  0  0  0  0  0  0  0  0  0  0  0
   -9.9702    0.5091    8.1897 C   0  0  0  0  0  0  0  0  0  0  0  0
   -9.2027   -0.3294    7.4534 N   0  0  0  0  0  0  0  0  0  0  0  0
   -8.2617   -0.0412    6.2491 C   0  0  0  0  0  0  0  0  0  0  0  0
   -7.9467    0.9736    5.7592 O   0  0  0  0  0  0  0  0  0  0  0  0
   -7.8403   -1.4425    5.6967 C   0  0  0  0  0  0  0  0  0  0  0  0
   -6.7163   -1.3266    4.6697 C   0  0  0  0  0  0  0  0  0  0  0  0
   -5.4907   -1.1707    5.5497 C   0  0  0  0  0  0  0  0  0  0  0  0
   -5.7849   -2.0542    6.7548 C   0  0  0  0  0  0  0  0  0  0  0  0
   -7.2448   -2.2337    6.8112 N   0  0  0  0  0  0  0  0  0  0  0  0
   -7.6716   -3.6224    6.5933 C   0  0  0  0  0  0  0  0  0  0  0  0
   -9.1137   -3.4481    6.1578 C   0  0  0  0  0  0  0  0  0  0  0  0
   -9.0498   -2.2568    5.2093 C   0  0  0  0  0  0  0  0  0  0  0  0
   -9.9957    1.9075    8.2021 C   0  0  0  0  0  0  0  0  0  0  0  0
  -10.9557    2.3819    9.0050 N   0  0  0  0  0  0  0  0  0  0  0  0
  -14.1232    0.8026    8.5666 H   0  0  0  0  0  0  0  0  0  0  0  0
  -14.8635    0.5134   10.1443 H   0  0  0  0  0  0  0  0  0  0  0  0
  -13.6208   -0.5815    9.5488 H   0  0  0  0  0  0  0  0  0  0  0  0
  -11.8248    1.5092   12.1761 H   0  0  0  0  0  0  0  0  0  0  0  0
  -12.1569   -0.1613   11.6856 H   0  0  0  0  0  0  0  0  0  0  0  0
  -13.4618    0.8645   12.2891 H   0  0  0  0  0  0  0  0  0  0  0  0
  -11.8730    3.5459    9.5236 H   0  0  0  0  0  0  0  0  0  0  0  0
  -11.2964   -0.8647    9.3548 H   0  0  0  0  0  0  0  0  0  0  0  0
   -9.1892   -1.3227    7.6646 H   0  0  0  0  0  0  0  0  0  0  0  0
   -6.6190   -2.2408    4.0705 H   0  0  0  0  0  0  0  0  0  0  0  0
   -6.8298   -0.4834    3.9815 H   0  0  0  0  0  0  0  0  0  0  0  0
   -4.5711   -1.4619    5.0333 H   0  0  0  0  0  0  0  0  0  0  0  0
   -5.3912   -0.1273    5.8646 H   0  0  0  0  0  0  0  0  0  0  0  0
   -5.2531   -3.0088    6.6659 H   0  0  0  0  0  0  0  0  0  0  0  0
   -5.4301   -1.5707    7.6711 H   0  0  0  0  0  0  0  0  0  0  0  0
   -7.6006   -4.2229    7.5033 H   0  0  0  0  0  0  0  0  0  0  0  0
   -7.0941   -4.1119    5.7997 H   0  0  0  0  0  0  0  0  0  0  0  0
   -9.5325   -4.3325    5.6753 H   0  0  0  0  0  0  0  0  0  0  0  0
   -9.7545   -3.2216    7.0173 H   0  0  0  0  0  0  0  0  0  0  0  0
   -8.8979   -2.6182    4.1851 H   0  0  0  0  0  0  0  0  0  0  0  0
   -9.9929   -1.7007    5.2226 H   0  0  0  0  0  0  0  0  0  0  0  0
   -9.3641    2.5986    7.6576 H   0  0  0  0  0  0  0  0  0  0  0  0
  1  2  1  0
  2  3  1  0
  2  4  1  0
  4  5  2  0
  4  6  1  0
  2  7  1  0
  7  8  1  0
  8  9  2  0
  9 10  1  0
 10 11  1  0
 11 12  2  0
 11 13  1  0
 13 14  1  0
 14 15  1  0
 15 16  1  0
 16 17  1  0
 17 18  1  0
 18 19  1  0
 19 20  1  0
  9 21  1  0
 21 22  2  0
 22  7  1  0
 17 13  1  0
 20 13  1  0
  1 23  1  0
  1 24  1  0
  1 25  1  0
  3 26  1  0
  3 27  1  0
  3 28  1  0
  6 29  1  0
  8 30  1  0
 10 31  1  0
 14 32  1  0
 14 33  1  0
 15 34  1  0
 15 35  1  0
 16 36  1  0
 16 37  1  0
 18 38  1  0
 18 39  1  0
 19 40  1  0
 19 41  1  0
 20 42  1  0
 20 43  1  0
 21 44  1  0
M  END
>  <Energy>  (962) 
58.124165307691804

>  <compound_id>  (962) 
51126

>  <target_id>  (962) 
1

>  <reference_id>  (962) 
95

>  <inspiration_ids>  (962) 
[127, 95]

>  <energy_score>  (962) 
-42.69792640626821

>  <distance_score>  (962) 
1.6337715255130019

>  <path>  (962) 
/opt/xchem-fragalysis-2/maxwin/BulkDock/SCRATCH/511025/C51126-P95/C51126-P95.minimised.mol

>  <scratch_subdir>  (962) 
/opt/xchem-fragalysis-2/maxwin/BulkDock/SCRATCH/511025/C51126-P95

>  <fragmenstein_runtime>  (962) 
24.373764514923096

>  <fragmenstein_outcome>  (962) 
too moved

>  <fragmenstein_mode>  (962) 
expansion

>  <fragmenstein_error>  (962) 


$$$$
C51128-P127
     RDKit          3D

 52 53  0  0  0  0  0  0  0  0999 V2000
   -9.7960   -1.6058    2.6693 C   0  0  0  0  0  0  0  0  0  0  0  0
   -9.2263   -0.3935    3.3755 C   0  0  0  0  0  0  0  0  0  0  0  0
   -9.5055   -0.3909    4.8749 C   0  0  0  0  0  0  0  0  0  0  0  0
  -10.9194   -0.4283    5.1699 N   0  0  0  0  0  0  0  0  0  0  0  0
  -12.0278    0.5964    4.8778 C   0  0  0  0  0  0  0  0  0  0  0  0
  -11.9926    1.5983    4.2857 O   0  0  0  0  0  0  0  0  0  0  0  0
  -13.3653    0.2041    5.5630 C   0  0  0  0  0  0  0  0  0  0  0  0
  -14.2068   -0.3411    4.9769 O   0  0  0  0  0  0  0  0  0  0  0  0
  -13.3444    0.7495    6.9966 N   0  0  0  0  0  0  0  0  0  0  0  0
  -14.3855    0.8240    7.9806 C   0  0  0  0  0  0  0  0  0  0  0  0
  -13.8801    0.9337    9.4219 C   0  0  0  0  0  0  0  0  0  0  0  0
  -12.6334    1.8203    9.6226 C   0  0  0  0  0  0  0  0  0  0  0  0
  -11.4482    1.3349    8.9019 N   0  0  0  0  0  0  0  0  0  0  0  0
  -10.3027    2.2570    9.0271 C   0  0  0  0  0  0  0  0  0  0  0  0
   -9.0926    1.7478    8.2116 C   0  0  0  0  0  0  0  0  0  0  0  0
   -8.6603    0.3925    8.5746 N   0  0  0  0  0  0  0  0  0  0  0  0
   -9.8136   -0.5187    8.6052 C   0  0  0  0  0  0  0  0  0  0  0  0
  -11.0162    0.0070    9.3947 C   0  0  0  0  0  0  0  0  0  0  0  0
   -8.6631   -1.4038    5.5952 C   0  0  0  0  0  0  0  0  0  0  0  0
   -8.8932   -2.7611    5.9340 C   0  0  0  0  0  0  0  0  0  0  0  0
   -7.7084   -3.1936    6.4890 C   0  0  0  0  0  0  0  0  0  0  0  0
   -6.8691   -2.1241    6.4650 N   0  0  0  0  0  0  0  0  0  0  0  0
   -5.4891   -2.0611    6.8715 C   0  0  0  0  0  0  0  0  0  0  0  0
   -7.4310   -1.0163    5.9688 N   0  0  0  0  0  0  0  0  0  0  0  0
  -10.8805   -1.6810    2.7956 H   0  0  0  0  0  0  0  0  0  0  0  0
   -9.5965   -1.5368    1.5945 H   0  0  0  0  0  0  0  0  0  0  0  0
   -9.3418   -2.5354    3.0244 H   0  0  0  0  0  0  0  0  0  0  0  0
   -9.6691    0.5021    2.9214 H   0  0  0  0  0  0  0  0  0  0  0  0
   -8.1477   -0.3378    3.1826 H   0  0  0  0  0  0  0  0  0  0  0  0
   -9.1923    0.6017    5.2238 H   0  0  0  0  0  0  0  0  0  0  0  0
  -11.3180   -1.2322    5.6468 H   0  0  0  0  0  0  0  0  0  0  0  0
  -12.4657    1.2464    7.1599 H   0  0  0  0  0  0  0  0  0  0  0  0
  -15.0490   -0.0382    7.8589 H   0  0  0  0  0  0  0  0  0  0  0  0
  -14.9716    1.7160    7.7328 H   0  0  0  0  0  0  0  0  0  0  0  0
  -13.7019   -0.0719    9.8174 H   0  0  0  0  0  0  0  0  0  0  0  0
  -14.6952    1.3355   10.0376 H   0  0  0  0  0  0  0  0  0  0  0  0
  -12.4235    1.8985   10.6971 H   0  0  0  0  0  0  0  0  0  0  0  0
  -12.8809    2.8301    9.2718 H   0  0  0  0  0  0  0  0  0  0  0  0
  -10.5824    3.2442    8.6404 H   0  0  0  0  0  0  0  0  0  0  0  0
  -10.0178    2.3841   10.0794 H   0  0  0  0  0  0  0  0  0  0  0  0
   -9.3495    1.7766    7.1468 H   0  0  0  0  0  0  0  0  0  0  0  0
   -8.2506    2.4345    8.3472 H   0  0  0  0  0  0  0  0  0  0  0  0
   -8.0205    0.0505    7.8489 H   0  0  0  0  0  0  0  0  0  0  0  0
  -10.1597   -0.7108    7.5933 H   0  0  0  0  0  0  0  0  0  0  0  0
   -9.4949   -1.4801    9.0138 H   0  0  0  0  0  0  0  0  0  0  0  0
  -11.8185   -0.7220    9.2680 H   0  0  0  0  0  0  0  0  0  0  0  0
  -10.7730    0.0489   10.4630 H   0  0  0  0  0  0  0  0  0  0  0  0
   -9.7808   -3.3551    5.7609 H   0  0  0  0  0  0  0  0  0  0  0  0
   -7.4049   -4.1608    6.8637 H   0  0  0  0  0  0  0  0  0  0  0  0
   -5.1142   -3.0725    7.0348 H   0  0  0  0  0  0  0  0  0  0  0  0
   -5.4271   -1.4732    7.7903 H   0  0  0  0  0  0  0  0  0  0  0  0
   -4.9094   -1.5857    6.0755 H   0  0  0  0  0  0  0  0  0  0  0  0
  1  2  1  0
  2  3  1  0
  3  4  1  0
  4  5  1  0
  5  6  2  0
  5  7  1  0
  7  8  2  0
  7  9  1  0
  9 10  1  0
 10 11  1  0
 11 12  1  0
 12 13  1  0
 13 14  1  0
 14 15  1  0
 15 16  1  0
 16 17  1  0
 17 18  1  0
  3 19  1  0
 19 20  1  0
 20 21  2  0
 21 22  1  0
 22 23  1  0
 22 24  1  0
 18 13  1  0
 24 19  2  0
  1 25  1  0
  1 26  1  0
  1 27  1  0
  2 28  1  0
  2 29  1  0
  3 30  1  0
  4 31  1  0
  9 32  1  0
 10 33  1  0
 10 34  1  0
 11 35  1  0
 11 36  1  0
 12 37  1  0
 12 38  1  0
 14 39  1  0
 14 40  1  0
 15 41  1  0
 15 42  1  0
 16 43  1  0
 17 44  1  0
 17 45  1  0
 18 46  1  0
 18 47  1  0
 20 48  1  0
 21 49  1  0
 23 50  1  0
 23 51  1  0
 23 52  1  0
M  END
>  <Energy>  (963) 
137.57592898680872

>  <compound_id>  (963) 
51128

>  <target_id>  (963) 
1

>  <reference_id>  (963) 
127

>  <inspiration_ids>  (963) 
[127, 95]

>  <energy_score>  (963) 
-13.34672110735869

>  <distance_score>  (963) 
2.0112339775856367

>  <path>  (963) 
/opt/xchem-fragalysis-2/maxwin/BulkDock/SCRATCH/511025/C51128-P127/C51128-P127.minimised.mol

>  <scratch_subdir>  (963) 
/opt/xchem-fragalysis-2/maxwin/BulkDock/SCRATCH/511025/C51128-P127

>  <fragmenstein_runtime>  (963) 
6.920960426330566

>  <fragmenstein_outcome>  (963) 
too moved

>  <fragmenstein_mode>  (963) 
expansion

>  <fragmenstein_error>  (963) 


$$$$
C51128-P95
     RDKit          3D

 52 53  0  0  0  0  0  0  0  0999 V2000
   -9.8615   -0.2020    2.2142 C   0  0  0  0  0  0  0  0  0  0  0  0
   -9.2132   -1.1982    3.1510 C   0  0  0  0  0  0  0  0  0  0  0  0
   -9.4964   -0.8765    4.6107 C   0  0  0  0  0  0  0  0  0  0  0  0
  -10.9003   -0.9213    4.9374 N   0  0  0  0  0  0  0  0  0  0  0  0
  -11.9928    0.1525    4.7993 C   0  0  0  0  0  0  0  0  0  0  0  0
  -11.9498    1.2169    4.3291 O   0  0  0  0  0  0  0  0  0  0  0  0
  -13.2964   -0.2888    5.5090 C   0  0  0  0  0  0  0  0  0  0  0  0
  -14.1459   -0.8621    4.9617 O   0  0  0  0  0  0  0  0  0  0  0  0
  -13.2215    0.2457    6.9472 N   0  0  0  0  0  0  0  0  0  0  0  0
  -14.1374    0.1049    8.0433 C   0  0  0  0  0  0  0  0  0  0  0  0
  -13.9806    1.2914    8.9997 C   0  0  0  0  0  0  0  0  0  0  0  0
  -12.6366    1.4274    9.7472 C   0  0  0  0  0  0  0  0  0  0  0  0
  -11.4671    1.0701    8.9363 N   0  0  0  0  0  0  0  0  0  0  0  0
  -10.3411    2.0124    9.0917 C   0  0  0  0  0  0  0  0  0  0  0  0
   -9.1474    1.6015    8.1959 C   0  0  0  0  0  0  0  0  0  0  0  0
   -8.6693    0.2348    8.4446 N   0  0  0  0  0  0  0  0  0  0  0  0
   -9.8044   -0.7027    8.4236 C   0  0  0  0  0  0  0  0  0  0  0  0
  -10.9777   -0.2798    9.3117 C   0  0  0  0  0  0  0  0  0  0  0  0
   -8.6262   -1.7210    5.4868 C   0  0  0  0  0  0  0  0  0  0  0  0
   -8.7688   -3.0566    5.9323 C   0  0  0  0  0  0  0  0  0  0  0  0
   -7.5779   -3.3432    6.5614 C   0  0  0  0  0  0  0  0  0  0  0  0
   -6.8241   -2.2125    6.4820 N   0  0  0  0  0  0  0  0  0  0  0  0
   -5.4713   -2.0044    6.9314 C   0  0  0  0  0  0  0  0  0  0  0  0
   -7.4481   -1.2008    5.8699 N   0  0  0  0  0  0  0  0  0  0  0  0
  -10.9512   -0.2959    2.2152 H   0  0  0  0  0  0  0  0  0  0  0  0
   -9.5947    0.8277    2.4721 H   0  0  0  0  0  0  0  0  0  0  0  0
   -9.5265   -0.3851    1.1876 H   0  0  0  0  0  0  0  0  0  0  0  0
   -8.1313   -1.1884    2.9644 H   0  0  0  0  0  0  0  0  0  0  0  0
   -9.5625   -2.2076    2.9021 H   0  0  0  0  0  0  0  0  0  0  0  0
   -9.2141    0.1734    4.7746 H   0  0  0  0  0  0  0  0  0  0  0  0
  -11.2626   -1.7082    5.4777 H   0  0  0  0  0  0  0  0  0  0  0  0
  -12.2898    0.6289    7.1208 H   0  0  0  0  0  0  0  0  0  0  0  0
  -15.1515    0.0630    7.6339 H   0  0  0  0  0  0  0  0  0  0  0  0
  -13.9378   -0.8461    8.5425 H   0  0  0  0  0  0  0  0  0  0  0  0
  -14.7832    1.2495    9.7462 H   0  0  0  0  0  0  0  0  0  0  0  0
  -14.1403    2.2141    8.4250 H   0  0  0  0  0  0  0  0  0  0  0  0
  -12.6786    0.8308   10.6684 H   0  0  0  0  0  0  0  0  0  0  0  0
  -12.5692    2.4696   10.0875 H   0  0  0  0  0  0  0  0  0  0  0  0
  -10.6609    3.0170    8.7905 H   0  0  0  0  0  0  0  0  0  0  0  0
  -10.0180    2.0675   10.1396 H   0  0  0  0  0  0  0  0  0  0  0  0
   -9.4391    1.6953    7.1417 H   0  0  0  0  0  0  0  0  0  0  0  0
   -8.3185    2.2982    8.3595 H   0  0  0  0  0  0  0  0  0  0  0  0
   -8.0450   -0.0376    7.6771 H   0  0  0  0  0  0  0  0  0  0  0  0
  -10.1837   -0.7907    7.4071 H   0  0  0  0  0  0  0  0  0  0  0  0
   -9.4487   -1.6917    8.7213 H   0  0  0  0  0  0  0  0  0  0  0  0
  -11.7796   -1.0138    9.1930 H   0  0  0  0  0  0  0  0  0  0  0  0
  -10.6695   -0.3072   10.3638 H   0  0  0  0  0  0  0  0  0  0  0  0
   -9.6009   -3.7296    5.7734 H   0  0  0  0  0  0  0  0  0  0  0  0
   -7.2170   -4.2466    7.0289 H   0  0  0  0  0  0  0  0  0  0  0  0
   -4.9817   -2.9726    7.0527 H   0  0  0  0  0  0  0  0  0  0  0  0
   -5.5035   -1.4606    7.8781 H   0  0  0  0  0  0  0  0  0  0  0  0
   -4.9320   -1.4231    6.1783 H   0  0  0  0  0  0  0  0  0  0  0  0
  1  2  1  0
  2  3  1  0
  3  4  1  0
  4  5  1  0
  5  6  2  0
  5  7  1  0
  7  8  2  0
  7  9  1  0
  9 10  1  0
 10 11  1  0
 11 12  1  0
 12 13  1  0
 13 14  1  0
 14 15  1  0
 15 16  1  0
 16 17  1  0
 17 18  1  0
  3 19  1  0
 19 20  1  0
 20 21  2  0
 21 22  1  0
 22 23  1  0
 22 24  1  0
 18 13  1  0
 24 19  2  0
  1 25  1  0
  1 26  1  0
  1 27  1  0
  2 28  1  0
  2 29  1  0
  3 30  1  0
  4 31  1  0
  9 32  1  0
 10 33  1  0
 10 34  1  0
 11 35  1  0
 11 36  1  0
 12 37  1  0
 12 38  1  0
 14 39  1  0
 14 40  1  0
 15 41  1  0
 15 42  1  0
 16 43  1  0
 17 44  1  0
 17 45  1  0
 18 46  1  0
 18 47  1  0
 20 48  1  0
 21 49  1  0
 23 50  1  0
 23 51  1  0
 23 52  1  0
M  END
>  <Energy>  (964) 
140.88925145883749

>  <compound_id>  (964) 
51128

>  <target_id>  (964) 
1

>  <reference_id>  (964) 
95

>  <inspiration_ids>  (964) 
[127, 95]

>  <energy_score>  (964) 
-10.033398635330059

>  <distance_score>  (964) 
1.9535332890848083

>  <path>  (964) 
/opt/xchem-fragalysis-2/maxwin/BulkDock/SCRATCH/511025/C51128-P95/C51128-P95.minimised.mol

>  <scratch_subdir>  (964) 
/opt/xchem-fragalysis-2/maxwin/BulkDock/SCRATCH/511025/C51128-P95

>  <fragmenstein_runtime>  (964) 
4.882885694503784

>  <fragmenstein_outcome>  (964) 
too moved

>  <fragmenstein_mode>  (964) 
expansion

>  <fragmenstein_error>  (964) 


$$$$
C34272-P65
     RDKit          3D

 48 50  0  0  0  0  0  0  0  0999 V2000
  -10.6259  -21.2911   12.8381 C   0  0  0  0  0  0  0  0  0  0  0  0
  -10.5873  -19.7062   13.0060 C   0  0  0  0  0  0  0  0  0  0  0  0
  -10.8838  -18.1185   13.6582 C   0  0  0  0  0  0  0  0  0  0  0  0
  -10.2942  -16.4190   13.0197 C   0  0  0  0  0  0  0  0  0  0  0  0
  -10.0263  -14.5498   13.2880 C   0  0  0  0  0  0  0  0  0  0  0  0
   -9.3815  -12.9270   11.9991 S   0  0  0  0  0  0  0  0  0  0  0  0
   -9.2639  -10.7362   12.6248 C   0  0  0  0  0  0  0  0  0  0  0  0
   -8.7813   -9.1310   11.4701 C   0  0  0  0  0  0  0  0  0  0  0  0
   -7.6664   -8.3869   10.0492 N   0  0  0  0  0  0  0  0  0  0  0  0
   -6.4412   -7.4449   10.0697 C   0  0  0  0  0  0  0  0  0  0  0  0
   -6.7595   -5.6407    9.4831 C   0  0  0  0  0  0  0  0  0  0  0  0
   -7.4863   -5.0298    8.3400 N   0  0  0  0  0  0  0  0  0  0  0  0
   -8.1803   -5.9839    7.7207 C   0  0  0  0  0  0  0  0  0  0  0  0
   -9.1048   -5.4315    6.9658 N   0  0  0  0  0  0  0  0  0  0  0  0
   -8.7493   -4.1246    6.8276 N   0  0  0  0  0  0  0  0  0  0  0  0
   -7.6358   -3.9298    7.5214 C   0  0  0  0  0  0  0  0  0  0  0  0
   -6.8081   -2.7497    7.2896 C   0  0  0  0  0  0  0  0  0  0  0  0
   -7.3883   -1.4864    7.2231 C   0  0  0  0  0  0  0  0  0  0  0  0
   -6.5743   -0.3883    6.9616 C   0  0  0  0  0  0  0  0  0  0  0  0
   -5.2124   -0.5828    6.7691 C   0  0  0  0  0  0  0  0  0  0  0  0
   -4.7222   -1.8763    6.8322 C   0  0  0  0  0  0  0  0  0  0  0  0
   -5.4868   -2.9648    7.0721 N   0  0  0  0  0  0  0  0  0  0  0  0
   -8.0048   -7.8720    8.4572 C   0  0  0  0  0  0  0  0  0  0  0  0
   -9.9748  -21.5607   11.9944 H   0  0  0  0  0  0  0  0  0  0  0  0
  -11.5809  -21.7402   12.6057 H   0  0  0  0  0  0  0  0  0  0  0  0
  -10.1573  -21.8401   13.6688 H   0  0  0  0  0  0  0  0  0  0  0  0
   -9.8314  -19.4392   12.2456 H   0  0  0  0  0  0  0  0  0  0  0  0
  -10.3885  -19.9819   14.0408 H   0  0  0  0  0  0  0  0  0  0  0  0
  -10.5532  -18.2984   14.6835 H   0  0  0  0  0  0  0  0  0  0  0  0
  -11.8897  -18.0517   13.9131 H   0  0  0  0  0  0  0  0  0  0  0  0
   -9.2658  -16.6004   13.3489 H   0  0  0  0  0  0  0  0  0  0  0  0
  -11.1355  -16.0997   13.6189 H   0  0  0  0  0  0  0  0  0  0  0  0
   -9.2452  -14.4671   14.0490 H   0  0  0  0  0  0  0  0  0  0  0  0
  -10.9850  -14.1384   13.6270 H   0  0  0  0  0  0  0  0  0  0  0  0
   -8.6106  -10.7380   13.5075 H   0  0  0  0  0  0  0  0  0  0  0  0
  -10.2637  -10.5132   12.9944 H   0  0  0  0  0  0  0  0  0  0  0  0
   -8.3737   -8.7468   12.3958 H   0  0  0  0  0  0  0  0  0  0  0  0
   -9.7670   -9.0560   11.0425 H   0  0  0  0  0  0  0  0  0  0  0  0
   -5.7690   -8.0265    9.4414 H   0  0  0  0  0  0  0  0  0  0  0  0
   -5.8562   -7.4348   11.0042 H   0  0  0  0  0  0  0  0  0  0  0  0
   -5.8356   -5.3409    9.1635 H   0  0  0  0  0  0  0  0  0  0  0  0
   -7.0998   -5.0448   10.3022 H   0  0  0  0  0  0  0  0  0  0  0  0
   -8.4573   -1.3645    7.3755 H   0  0  0  0  0  0  0  0  0  0  0  0
   -7.0034    0.6082    6.9209 H   0  0  0  0  0  0  0  0  0  0  0  0
   -4.5494    0.2529    6.5800 H   0  0  0  0  0  0  0  0  0  0  0  0
   -3.6644   -2.0779    6.6981 H   0  0  0  0  0  0  0  0  0  0  0  0
   -7.0852   -8.2311    7.9808 H   0  0  0  0  0  0  0  0  0  0  0  0
   -8.9171   -8.4079    8.2152 H   0  0  0  0  0  0  0  0  0  0  0  0
  1  2  1  0
  2  3  1  0
  3  4  1  0
  4  5  1  0
  5  6  1  0
  6  7  1  0
  7  8  1  0
  8  9  1  0
  9 10  1  0
 10 11  1  0
 11 12  1  0
 12 13  1  0
 13 14  2  0
 14 15  1  0
 15 16  2  0
 16 17  1  0
 17 18  2  0
 18 19  1  0
 19 20  2  0
 20 21  1  0
 21 22  2  0
 13 23  1  0
 23  9  1  0
 16 12  1  0
 22 17  1  0
  1 24  1  0
  1 25  1  0
  1 26  1  0
  2 27  1  0
  2 28  1  0
  3 29  1  0
  3 30  1  0
  4 31  1  0
  4 32  1  0
  5 33  1  0
  5 34  1  0
  7 35  1  0
  7 36  1  0
  8 37  1  0
  8 38  1  0
 10 39  1  0
 10 40  1  0
 11 41  1  0
 11 42  1  0
 18 43  1  0
 19 44  1  0
 20 45  1  0
 21 46  1  0
 23 47  1  0
 23 48  1  0
M  END
>  <Energy>  (965) 
757.10633150029651

>  <compound_id>  (965) 
34272

>  <target_id>  (965) 
1

>  <reference_id>  (965) 
65

>  <inspiration_ids>  (965) 
[65, 48]

>  <energy_score>  (965) 
664.4260082148135

>  <distance_score>  (965) 
7.164663119153284

>  <path>  (965) 
/opt/xchem-fragalysis-2/maxwin/BulkDock/SCRATCH/511025/C34272-P65/C34272-P65.minimised.mol

>  <scratch_subdir>  (965) 
/opt/xchem-fragalysis-2/maxwin/BulkDock/SCRATCH/511025/C34272-P65

>  <fragmenstein_runtime>  (965) 
10.242432355880737

>  <fragmenstein_outcome>  (965) 
too moved

>  <fragmenstein_mode>  (965) 
expansion

>  <fragmenstein_error>  (965) 


$$$$
C34272-P48
     RDKit          3D

 48 50  0  0  0  0  0  0  0  0999 V2000
  -10.4669  -15.6225   13.1989 C   0  0  0  0  0  0  0  0  0  0  0  0
  -10.9648  -14.5874   12.2425 C   0  0  0  0  0  0  0  0  0  0  0  0
  -11.4372  -13.3995   13.0823 C   0  0  0  0  0  0  0  0  0  0  0  0
  -10.3501  -12.4283   13.6485 C   0  0  0  0  0  0  0  0  0  0  0  0
   -9.3648  -11.8496   12.6038 C   0  0  0  0  0  0  0  0  0  0  0  0
   -9.0098   -9.6706   12.5060 S   0  0  0  0  0  0  0  0  0  0  0  0
   -8.0001   -8.7714   10.4854 C   0  0  0  0  0  0  0  0  0  0  0  0
   -7.5673   -7.8339    8.7270 C   0  0  0  0  0  0  0  0  0  0  0  0
   -7.8246   -6.1027    7.7204 N   0  0  0  0  0  0  0  0  0  0  0  0
   -7.3446   -4.8764    8.3105 C   0  0  0  0  0  0  0  0  0  0  0  0
   -6.8030   -3.8531    7.2046 C   0  0  0  0  0  0  0  0  0  0  0  0
   -8.0012   -3.2623    6.6626 N   0  0  0  0  0  0  0  0  0  0  0  0
   -9.1205   -4.0402    6.6800 C   0  0  0  0  0  0  0  0  0  0  0  0
  -10.1566   -3.2593    6.5213 N   0  0  0  0  0  0  0  0  0  0  0  0
   -9.6759   -1.9856    6.2514 N   0  0  0  0  0  0  0  0  0  0  0  0
   -8.3515   -2.0223    6.2524 C   0  0  0  0  0  0  0  0  0  0  0  0
   -7.4513   -0.9678    5.8128 C   0  0  0  0  0  0  0  0  0  0  0  0
   -7.9221    0.3256    5.6053 C   0  0  0  0  0  0  0  0  0  0  0  0
   -7.0660    1.2713    5.0492 C   0  0  0  0  0  0  0  0  0  0  0  0
   -5.7742    0.8947    4.7067 C   0  0  0  0  0  0  0  0  0  0  0  0
   -5.3820   -0.4111    4.9589 C   0  0  0  0  0  0  0  0  0  0  0  0
   -6.1829   -1.3481    5.5097 N   0  0  0  0  0  0  0  0  0  0  0  0
   -8.8931   -5.5444    6.7946 C   0  0  0  0  0  0  0  0  0  0  0  0
  -10.4025  -16.6509   12.8555 H   0  0  0  0  0  0  0  0  0  0  0  0
  -11.2267  -15.6443   13.9714 H   0  0  0  0  0  0  0  0  0  0  0  0
   -9.4855  -15.3281   13.5829 H   0  0  0  0  0  0  0  0  0  0  0  0
  -11.8111  -14.9793   11.6691 H   0  0  0  0  0  0  0  0  0  0  0  0
  -10.2037  -14.2910   11.5191 H   0  0  0  0  0  0  0  0  0  0  0  0
  -12.0495  -13.7350   13.9302 H   0  0  0  0  0  0  0  0  0  0  0  0
  -12.1453  -12.8695   12.4567 H   0  0  0  0  0  0  0  0  0  0  0  0
   -9.7762  -12.9710   14.4083 H   0  0  0  0  0  0  0  0  0  0  0  0
  -10.8444  -11.6077   14.1782 H   0  0  0  0  0  0  0  0  0  0  0  0
   -9.7179  -12.2178   11.6393 H   0  0  0  0  0  0  0  0  0  0  0  0
   -8.3945  -12.3069   12.8049 H   0  0  0  0  0  0  0  0  0  0  0  0
   -9.0498   -8.7214   10.3866 H   0  0  0  0  0  0  0  0  0  0  0  0
   -7.1967   -8.1949   10.9316 H   0  0  0  0  0  0  0  0  0  0  0  0
   -6.9791   -8.5052    8.1087 H   0  0  0  0  0  0  0  0  0  0  0  0
   -6.7256   -7.4300    9.3063 H   0  0  0  0  0  0  0  0  0  0  0  0
   -8.1688   -4.4169    8.8626 H   0  0  0  0  0  0  0  0  0  0  0  0
   -6.6701   -5.2472    9.0486 H   0  0  0  0  0  0  0  0  0  0  0  0
   -6.1764   -3.0371    7.5652 H   0  0  0  0  0  0  0  0  0  0  0  0
   -6.2764   -4.3552    6.3879 H   0  0  0  0  0  0  0  0  0  0  0  0
   -8.9508    0.5812    5.8451 H   0  0  0  0  0  0  0  0  0  0  0  0
   -7.4166    2.2829    4.8651 H   0  0  0  0  0  0  0  0  0  0  0  0
   -5.0881    1.6011    4.2523 H   0  0  0  0  0  0  0  0  0  0  0  0
   -4.3786   -0.7480    4.7148 H   0  0  0  0  0  0  0  0  0  0  0  0
   -9.7046   -6.1823    6.4692 H   0  0  0  0  0  0  0  0  0  0  0  0
   -8.2126   -5.4880    5.9777 H   0  0  0  0  0  0  0  0  0  0  0  0
  1  2  1  0
  2  3  1  0
  3  4  1  0
  4  5  1  0
  5  6  1  0
  6  7  1  0
  7  8  1  0
  8  9  1  0
  9 10  1  0
 10 11  1  0
 11 12  1  0
 12 13  1  0
 13 14  2  0
 14 15  1  0
 15 16  2  0
 16 17  1  0
 17 18  2  0
 18 19  1  0
 19 20  2  0
 20 21  1  0
 21 22  2  0
 13 23  1  0
 23  9  1  0
 16 12  1  0
 22 17  1  0
  1 24  1  0
  1 25  1  0
  1 26  1  0
  2 27  1  0
  2 28  1  0
  3 29  1  0
  3 30  1  0
  4 31  1  0
  4 32  1  0
  5 33  1  0
  5 34  1  0
  7 35  1  0
  7 36  1  0
  8 37  1  0
  8 38  1  0
 10 39  1  0
 10 40  1  0
 11 41  1  0
 11 42  1  0
 18 43  1  0
 19 44  1  0
 20 45  1  0
 21 46  1  0
 23 47  1  0
 23 48  1  0
M  END
>  <Energy>  (966) 
481.99048693802695

>  <compound_id>  (966) 
34272

>  <target_id>  (966) 
1

>  <reference_id>  (966) 
48

>  <inspiration_ids>  (966) 
[65, 48]

>  <energy_score>  (966) 
389.3101636525404

>  <distance_score>  (966) 
8.874991513345867

>  <path>  (966) 
/opt/xchem-fragalysis-2/maxwin/BulkDock/SCRATCH/511025/C34272-P48/C34272-P48.minimised.mol

>  <scratch_subdir>  (966) 
/opt/xchem-fragalysis-2/maxwin/BulkDock/SCRATCH/511025/C34272-P48

>  <fragmenstein_runtime>  (966) 
14.726834058761597

>  <fragmenstein_outcome>  (966) 
too moved

>  <fragmenstein_mode>  (966) 
expansion

>  <fragmenstein_error>  (966) 


$$$$
C34276-P65
     RDKit          3D

 43 47  0  0  0  0  0  0  0  0999 V2000
   -7.4629   -4.8711    8.4415 C   0  0  0  0  0  0  0  0  0  0  0  0
   -6.7863   -5.6013    9.4948 C   0  0  0  0  0  0  0  0  0  0  0  0
   -6.3994   -7.2181    9.8569 C   0  0  0  0  0  0  0  0  0  0  0  0
   -7.0892   -8.1926    9.2320 C   0  0  0  0  0  0  0  0  0  0  0  0
   -7.8465   -9.2545   10.0230 C   0  0  0  0  0  0  0  0  0  0  0  0
   -7.5327   -9.4144   11.3181 N   0  0  0  0  0  0  0  0  0  0  0  0
   -8.0948  -10.5607   11.8039 N   0  0  0  0  0  0  0  0  0  0  0  0
   -8.6991  -11.1435   10.7936 C   0  0  0  0  0  0  0  0  0  0  0  0
   -8.8196  -10.2438    9.7859 N   0  0  0  0  0  0  0  0  0  0  0  0
   -9.7694  -10.7540    8.8422 C   0  0  0  0  0  0  0  0  0  0  0  0
   -9.5186  -12.2983    8.2839 C   0  0  0  0  0  0  0  0  0  0  0  0
   -8.9401  -13.7708    9.1571 N   0  0  0  0  0  0  0  0  0  0  0  0
   -7.5952  -15.2153    8.4523 C   0  0  0  0  0  0  0  0  0  0  0  0
   -6.9794  -16.4501    8.7004 C   0  0  0  0  0  0  0  0  0  0  0  0
   -6.1365  -17.7534    8.5332 C   0  0  0  0  0  0  0  0  0  0  0  0
   -6.9397  -18.6628    9.0769 C   0  0  0  0  0  0  0  0  0  0  0  0
   -7.9749  -17.2066    8.0895 C   0  0  0  0  0  0  0  0  0  0  0  0
   -9.2803  -18.7095    7.8295 C   0  0  0  0  0  0  0  0  0  0  0  0
   -8.2530  -17.7150    7.5394 C   0  0  0  0  0  0  0  0  0  0  0  0
   -9.0226  -12.6169   10.6193 C   0  0  0  0  0  0  0  0  0  0  0  0
   -7.6876   -7.5466    8.2425 N   0  0  0  0  0  0  0  0  0  0  0  0
   -7.9225   -5.8497    7.7123 C   0  0  0  0  0  0  0  0  0  0  0  0
   -7.8087   -3.8573    8.3758 H   0  0  0  0  0  0  0  0  0  0  0  0
   -6.8962   -5.0297   10.4112 H   0  0  0  0  0  0  0  0  0  0  0  0
   -5.8432   -7.4264   10.7755 H   0  0  0  0  0  0  0  0  0  0  0  0
  -10.7439  -10.7111    9.3429 H   0  0  0  0  0  0  0  0  0  0  0  0
   -9.7723  -10.0276    8.0434 H   0  0  0  0  0  0  0  0  0  0  0  0
  -10.1743  -12.6602    7.5278 H   0  0  0  0  0  0  0  0  0  0  0  0
   -8.7864  -11.8708    7.6484 H   0  0  0  0  0  0  0  0  0  0  0  0
   -8.2312  -15.7150    9.0555 H   0  0  0  0  0  0  0  0  0  0  0  0
   -6.3226  -15.4518    8.7490 H   0  0  0  0  0  0  0  0  0  0  0  0
   -6.3668  -17.9468    7.5869 H   0  0  0  0  0  0  0  0  0  0  0  0
   -4.9534  -17.7609    8.5574 H   0  0  0  0  0  0  0  0  0  0  0  0
   -7.8157  -19.2823    9.2145 H   0  0  0  0  0  0  0  0  0  0  0  0
   -6.7958  -18.6883   10.1763 H   0  0  0  0  0  0  0  0  0  0  0  0
   -7.7617  -16.3069    7.1605 H   0  0  0  0  0  0  0  0  0  0  0  0
   -9.4325  -19.2027    6.8418 H   0  0  0  0  0  0  0  0  0  0  0  0
   -9.2037  -19.5915    8.4571 H   0  0  0  0  0  0  0  0  0  0  0  0
   -8.2849  -17.8536    6.3542 H   0  0  0  0  0  0  0  0  0  0  0  0
   -9.5071  -17.6082    8.0701 H   0  0  0  0  0  0  0  0  0  0  0  0
   -8.4673  -12.9812   11.5079 H   0  0  0  0  0  0  0  0  0  0  0  0
  -10.0984  -12.6992   10.8518 H   0  0  0  0  0  0  0  0  0  0  0  0
   -8.6653   -5.6633    6.9304 H   0  0  0  0  0  0  0  0  0  0  0  0
  1  2  2  0
  2  3  1  0
  3  4  2  0
  4  5  1  0
  5  6  2  0
  6  7  1  0
  7  8  2  0
  8  9  1  0
  9 10  1  0
 10 11  1  0
 11 12  1  0
 12 13  1  0
 13 14  1  0
 14 15  1  0
 15 16  1  0
 16 17  1  0
 17 18  1  0
 18 19  1  0
 12 20  1  0
  4 21  1  0
 21 22  2  0
 22  1  1  0
  9  5  1  0
 17 13  1  0
 20  8  1  0
 19 14  1  0
  1 23  1  0
  2 24  1  0
  3 25  1  0
 10 26  1  0
 10 27  1  0
 11 28  1  0
 11 29  1  0
 13 30  1  0
 14 31  1  0
 15 32  1  0
 15 33  1  0
 16 34  1  0
 16 35  1  0
 17 36  1  0
 18 37  1  0
 18 38  1  0
 19 39  1  0
 19 40  1  0
 20 41  1  0
 20 42  1  0
 22 43  1  0
M  END
>  <Energy>  (967) 
1837.6934339893758

>  <compound_id>  (967) 
34276

>  <target_id>  (967) 
1

>  <reference_id>  (967) 
65

>  <inspiration_ids>  (967) 
[65, 48]

>  <energy_score>  (967) 
1736.4354700198492

>  <distance_score>  (967) 
10.498361761254959

>  <path>  (967) 
/opt/xchem-fragalysis-2/maxwin/BulkDock/SCRATCH/511025/C34276-P65/C34276-P65.minimised.mol

>  <scratch_subdir>  (967) 
/opt/xchem-fragalysis-2/maxwin/BulkDock/SCRATCH/511025/C34276-P65

>  <fragmenstein_runtime>  (967) 
10.073275566101074

>  <fragmenstein_outcome>  (967) 
too moved

>  <fragmenstein_mode>  (967) 
expansion

>  <fragmenstein_error>  (967) 


$$$$
C34276-P48
     RDKit          3D

 43 47  0  0  0  0  0  0  0  0999 V2000
   -7.6085   -3.5014    6.3898 C   0  0  0  0  0  0  0  0  0  0  0  0
   -8.3747   -3.6510    7.5017 C   0  0  0  0  0  0  0  0  0  0  0  0
   -8.4806   -4.9257    8.1147 C   0  0  0  0  0  0  0  0  0  0  0  0
   -7.9139   -6.2160    7.6648 C   0  0  0  0  0  0  0  0  0  0  0  0
   -8.0139   -8.1352    8.4803 C   0  0  0  0  0  0  0  0  0  0  0  0
   -7.5615   -8.6973    9.7103 N   0  0  0  0  0  0  0  0  0  0  0  0
   -8.5760   -9.9056   10.4673 N   0  0  0  0  0  0  0  0  0  0  0  0
   -9.4211  -10.6723    9.5800 C   0  0  0  0  0  0  0  0  0  0  0  0
   -9.0958   -9.5961    8.5017 N   0  0  0  0  0  0  0  0  0  0  0  0
   -8.2412  -11.0505    8.6650 C   0  0  0  0  0  0  0  0  0  0  0  0
   -8.4677  -12.5510   10.0680 C   0  0  0  0  0  0  0  0  0  0  0  0
   -8.5805  -14.2419    9.2990 N   0  0  0  0  0  0  0  0  0  0  0  0
   -7.5341  -16.0646    8.9918 C   0  0  0  0  0  0  0  0  0  0  0  0
   -6.5415  -16.9771   10.6335 C   0  0  0  0  0  0  0  0  0  0  0  0
   -6.6388  -18.8903   11.2916 C   0  0  0  0  0  0  0  0  0  0  0  0
   -7.7800  -19.5404    9.9663 C   0  0  0  0  0  0  0  0  0  0  0  0
   -8.1298  -18.0307    8.4583 C   0  0  0  0  0  0  0  0  0  0  0  0
   -6.8792  -18.1096    8.0867 C   0  0  0  0  0  0  0  0  0  0  0  0
   -5.9577  -18.0296    9.0925 C   0  0  0  0  0  0  0  0  0  0  0  0
   -9.5666  -12.6703    9.0059 C   0  0  0  0  0  0  0  0  0  0  0  0
   -7.1685   -5.9020    6.5287 N   0  0  0  0  0  0  0  0  0  0  0  0
   -7.0168   -4.6476    5.9605 C   0  0  0  0  0  0  0  0  0  0  0  0
   -7.4801   -2.5531    5.8892 H   0  0  0  0  0  0  0  0  0  0  0  0
   -8.8900   -2.8013    7.9453 H   0  0  0  0  0  0  0  0  0  0  0  0
   -9.0731   -4.8117    9.0206 H   0  0  0  0  0  0  0  0  0  0  0  0
   -8.5505  -11.4291    7.6894 H   0  0  0  0  0  0  0  0  0  0  0  0
   -7.2565  -10.5568    8.5721 H   0  0  0  0  0  0  0  0  0  0  0  0
   -8.0761  -12.3920   11.1266 H   0  0  0  0  0  0  0  0  0  0  0  0
   -9.3815  -12.4600   10.8073 H   0  0  0  0  0  0  0  0  0  0  0  0
   -6.7008  -15.4631    8.6209 H   0  0  0  0  0  0  0  0  0  0  0  0
   -6.0261  -16.2379   11.2764 H   0  0  0  0  0  0  0  0  0  0  0  0
   -5.8945  -19.6866   11.4609 H   0  0  0  0  0  0  0  0  0  0  0  0
   -7.0728  -18.8712   12.3255 H   0  0  0  0  0  0  0  0  0  0  0  0
   -8.6580  -19.7307   10.7002 H   0  0  0  0  0  0  0  0  0  0  0  0
   -8.1149  -20.4856    9.7037 H   0  0  0  0  0  0  0  0  0  0  0  0
   -9.0028  -18.4757    7.9640 H   0  0  0  0  0  0  0  0  0  0  0  0
   -7.4040  -17.5916    7.3639 H   0  0  0  0  0  0  0  0  0  0  0  0
   -7.1780  -19.0328    8.3717 H   0  0  0  0  0  0  0  0  0  0  0  0
   -5.9097  -19.0706    9.3213 H   0  0  0  0  0  0  0  0  0  0  0  0
   -4.7659  -17.8867    8.7784 H   0  0  0  0  0  0  0  0  0  0  0  0
  -10.4489  -12.8636    9.5841 H   0  0  0  0  0  0  0  0  0  0  0  0
   -9.4878  -12.9989    7.9563 H   0  0  0  0  0  0  0  0  0  0  0  0
   -6.3910   -4.6350    5.0729 H   0  0  0  0  0  0  0  0  0  0  0  0
  1  2  2  0
  2  3  1  0
  3  4  2  0
  4  5  1  0
  5  6  2  0
  6  7  1  0
  7  8  2  0
  8  9  1  0
  9 10  1  0
 10 11  1  0
 11 12  1  0
 12 13  1  0
 13 14  1  0
 14 15  1  0
 15 16  1  0
 16 17  1  0
 17 18  1  0
 18 19  1  0
 12 20  1  0
  4 21  1  0
 21 22  2  0
 22  1  1  0
  9  5  1  0
 17 13  1  0
 20  8  1  0
 19 14  1  0
  1 23  1  0
  2 24  1  0
  3 25  1  0
 10 26  1  0
 10 27  1  0
 11 28  1  0
 11 29  1  0
 13 30  1  0
 14 31  1  0
 15 32  1  0
 15 33  1  0
 16 34  1  0
 16 35  1  0
 17 36  1  0
 18 37  1  0
 18 38  1  0
 19 39  1  0
 19 40  1  0
 20 41  1  0
 20 42  1  0
 22 43  1  0
M  END
>  <Energy>  (968) 
1946.1858034205134

>  <compound_id>  (968) 
34276

>  <target_id>  (968) 
1

>  <reference_id>  (968) 
48

>  <inspiration_ids>  (968) 
[65, 48]

>  <energy_score>  (968) 
1844.927839450983

>  <distance_score>  (968) 
9.970250411493733

>  <path>  (968) 
/opt/xchem-fragalysis-2/maxwin/BulkDock/SCRATCH/511025/C34276-P48/C34276-P48.minimised.mol

>  <scratch_subdir>  (968) 
/opt/xchem-fragalysis-2/maxwin/BulkDock/SCRATCH/511025/C34276-P48

>  <fragmenstein_runtime>  (968) 
10.28327488899231

>  <fragmenstein_outcome>  (968) 
too moved

>  <fragmenstein_mode>  (968) 
expansion

>  <fragmenstein_error>  (968) 


$$$$
C34277-P65
     RDKit          3D

 46 48  0  0  0  0  0  0  0  0999 V2000
   -8.0973   -2.8473    3.9844 C   0  0  0  0  0  0  0  0  0  0  0  0
   -7.4353   -2.1884    5.1967 C   0  0  0  0  0  0  0  0  0  0  0  0
   -8.4454   -1.3499    5.9883 C   0  0  0  0  0  0  0  0  0  0  0  0
   -6.6038   -3.1632    5.9550 N   0  0  0  0  0  0  0  0  0  0  0  0
   -5.3477   -2.5035    6.3511 C   0  0  0  0  0  0  0  0  0  0  0  0
   -7.2326   -3.7376    7.1745 C   0  0  0  0  0  0  0  0  0  0  0  0
   -8.2656   -4.7911    7.0127 C   0  0  0  0  0  0  0  0  0  0  0  0
   -9.3813   -4.5817    6.3336 N   0  0  0  0  0  0  0  0  0  0  0  0
  -10.0330   -5.7628    6.0217 N   0  0  0  0  0  0  0  0  0  0  0  0
   -9.6776   -6.7388    6.8500 C   0  0  0  0  0  0  0  0  0  0  0  0
   -8.3740   -6.0206    7.6312 N   0  0  0  0  0  0  0  0  0  0  0  0
   -7.3968   -7.5274    8.3060 C   0  0  0  0  0  0  0  0  0  0  0  0
   -8.0285   -8.9838    8.6969 C   0  0  0  0  0  0  0  0  0  0  0  0
   -9.1392  -10.6168    8.0060 N   0  0  0  0  0  0  0  0  0  0  0  0
   -9.6476  -12.6818    8.6338 C   0  0  0  0  0  0  0  0  0  0  0  0
   -9.6014  -14.6664    9.6096 C   0  0  0  0  0  0  0  0  0  0  0  0
  -10.9701  -16.3059   10.4199 C   0  0  0  0  0  0  0  0  0  0  0  0
  -10.9725  -18.0979    9.6743 C   0  0  0  0  0  0  0  0  0  0  0  0
   -9.9974  -18.5504    8.2053 C   0  0  0  0  0  0  0  0  0  0  0  0
   -8.3955  -17.6985    8.1938 C   0  0  0  0  0  0  0  0  0  0  0  0
   -8.1488  -15.9986    9.0275 N   0  0  0  0  0  0  0  0  0  0  0  0
   -9.8136   -8.7835    7.3511 C   0  0  0  0  0  0  0  0  0  0  0  0
   -8.9385   -3.4833    4.2564 H   0  0  0  0  0  0  0  0  0  0  0  0
   -8.4850   -2.0811    3.3029 H   0  0  0  0  0  0  0  0  0  0  0  0
   -7.3749   -3.4448    3.4176 H   0  0  0  0  0  0  0  0  0  0  0  0
   -6.7515   -1.4571    4.7409 H   0  0  0  0  0  0  0  0  0  0  0  0
   -8.8916   -0.5862    5.3410 H   0  0  0  0  0  0  0  0  0  0  0  0
   -7.9587   -0.8248    6.8169 H   0  0  0  0  0  0  0  0  0  0  0  0
   -9.2665   -1.9503    6.3894 H   0  0  0  0  0  0  0  0  0  0  0  0
   -4.8060   -2.1383    5.4707 H   0  0  0  0  0  0  0  0  0  0  0  0
   -5.5201   -1.6610    7.0306 H   0  0  0  0  0  0  0  0  0  0  0  0
   -4.6674   -3.2073    6.8412 H   0  0  0  0  0  0  0  0  0  0  0  0
   -7.6342   -2.9463    7.8165 H   0  0  0  0  0  0  0  0  0  0  0  0
   -6.4430   -4.2158    7.7281 H   0  0  0  0  0  0  0  0  0  0  0  0
   -6.8729   -7.1046    9.1864 H   0  0  0  0  0  0  0  0  0  0  0  0
   -6.7423   -7.8856    7.5237 H   0  0  0  0  0  0  0  0  0  0  0  0
   -8.8987   -8.4519    9.1886 H   0  0  0  0  0  0  0  0  0  0  0  0
   -7.7806   -8.8239    9.7992 H   0  0  0  0  0  0  0  0  0  0  0  0
  -10.4302  -12.3484    9.3184 H   0  0  0  0  0  0  0  0  0  0  0  0
   -9.7525  -13.0700    7.6175 H   0  0  0  0  0  0  0  0  0  0  0  0
  -11.3869  -16.3061   11.5572 H   0  0  0  0  0  0  0  0  0  0  0  0
  -10.3076  -18.6763   10.3781 H   0  0  0  0  0  0  0  0  0  0  0  0
   -9.9613  -19.6129    7.9539 H   0  0  0  0  0  0  0  0  0  0  0  0
   -7.4684  -18.1997    7.8911 H   0  0  0  0  0  0  0  0  0  0  0  0
   -9.1150   -8.2601    7.7674 H   0  0  0  0  0  0  0  0  0  0  0  0
   -9.7614   -8.8194    6.1919 H   0  0  0  0  0  0  0  0  0  0  0  0
  1  2  1  0
  2  3  1  0
  2  4  1  0
  4  5  1  0
  4  6  1  0
  6  7  1  0
  7  8  2  0
  8  9  1  0
  9 10  2  0
 10 11  1  0
 11 12  1  0
 12 13  1  0
 13 14  1  0
 14 15  1  0
 15 16  1  0
 16 17  2  0
 17 18  1  0
 18 19  2  0
 19 20  1  0
 20 21  2  0
 14 22  1  0
 11  7  1  0
 21 16  1  0
 22 10  1  0
  1 23  1  0
  1 24  1  0
  1 25  1  0
  2 26  1  0
  3 27  1  0
  3 28  1  0
  3 29  1  0
  5 30  1  0
  5 31  1  0
  5 32  1  0
  6 33  1  0
  6 34  1  0
 12 35  1  0
 12 36  1  0
 13 37  1  0
 13 38  1  0
 15 39  1  0
 15 40  1  0
 17 41  1  0
 18 42  1  0
 19 43  1  0
 20 44  1  0
 22 45  1  0
 22 46  1  0
M  END
>  <Energy>  (969) 
2210.2660936199122

>  <compound_id>  (969) 
34277

>  <target_id>  (969) 
1

>  <reference_id>  (969) 
65

>  <inspiration_ids>  (969) 
[65, 48]

>  <energy_score>  (969) 
2094.749375276357

>  <distance_score>  (969) 
8.287570481651663

>  <path>  (969) 
/opt/xchem-fragalysis-2/maxwin/BulkDock/SCRATCH/511025/C34277-P65/C34277-P65.minimised.mol

>  <scratch_subdir>  (969) 
/opt/xchem-fragalysis-2/maxwin/BulkDock/SCRATCH/511025/C34277-P65

>  <fragmenstein_runtime>  (969) 
12.301489114761353

>  <fragmenstein_outcome>  (969) 
too moved

>  <fragmenstein_mode>  (969) 
expansion

>  <fragmenstein_error>  (969) 


$$$$
C34277-P48
     RDKit          3D

 46 48  0  0  0  0  0  0  0  0999 V2000
   -6.7460    0.0085    5.2776 C   0  0  0  0  0  0  0  0  0  0  0  0
   -6.9061   -1.0453    6.3820 C   0  0  0  0  0  0  0  0  0  0  0  0
   -6.8508   -0.3740    7.7589 C   0  0  0  0  0  0  0  0  0  0  0  0
   -8.0893   -1.8909    6.1315 N   0  0  0  0  0  0  0  0  0  0  0  0
   -9.3704   -1.1981    6.3132 C   0  0  0  0  0  0  0  0  0  0  0  0
   -8.0639   -3.1355    6.9293 C   0  0  0  0  0  0  0  0  0  0  0  0
   -8.9410   -4.2413    6.4173 C   0  0  0  0  0  0  0  0  0  0  0  0
   -9.7434   -4.2330    5.3861 N   0  0  0  0  0  0  0  0  0  0  0  0
  -10.3016   -5.4905    5.2545 N   0  0  0  0  0  0  0  0  0  0  0  0
   -9.8143   -6.3078    6.1832 C   0  0  0  0  0  0  0  0  0  0  0  0
   -8.9469   -5.5283    6.9122 N   0  0  0  0  0  0  0  0  0  0  0  0
   -7.8483   -6.1082    7.5979 C   0  0  0  0  0  0  0  0  0  0  0  0
   -7.9471   -8.0694    8.2743 C   0  0  0  0  0  0  0  0  0  0  0  0
   -9.3984   -9.1520    7.7101 N   0  0  0  0  0  0  0  0  0  0  0  0
   -9.2373  -10.9931    7.1552 C   0  0  0  0  0  0  0  0  0  0  0  0
   -9.9804  -12.7134    6.4635 C   0  0  0  0  0  0  0  0  0  0  0  0
   -9.7100  -14.0123    7.1965 C   0  0  0  0  0  0  0  0  0  0  0  0
  -11.2328  -15.2949    6.7706 C   0  0  0  0  0  0  0  0  0  0  0  0
  -12.4573  -15.2647    5.8882 C   0  0  0  0  0  0  0  0  0  0  0  0
  -12.6466  -14.0627    5.2861 C   0  0  0  0  0  0  0  0  0  0  0  0
  -11.6580  -12.9672    5.5779 N   0  0  0  0  0  0  0  0  0  0  0  0
  -10.0906   -8.0999    6.2831 C   0  0  0  0  0  0  0  0  0  0  0  0
   -7.5111    0.7892    5.3338 H   0  0  0  0  0  0  0  0  0  0  0  0
   -6.7956   -0.4524    4.2848 H   0  0  0  0  0  0  0  0  0  0  0  0
   -5.7708    0.5008    5.3602 H   0  0  0  0  0  0  0  0  0  0  0  0
   -6.0169   -1.6851    6.2970 H   0  0  0  0  0  0  0  0  0  0  0  0
   -5.9014    0.1587    7.8839 H   0  0  0  0  0  0  0  0  0  0  0  0
   -6.9150   -1.1097    8.5644 H   0  0  0  0  0  0  0  0  0  0  0  0
   -7.6551    0.3563    7.8935 H   0  0  0  0  0  0  0  0  0  0  0  0
   -9.4222   -0.2900    5.7051 H   0  0  0  0  0  0  0  0  0  0  0  0
  -10.2133   -1.8137    5.9852 H   0  0  0  0  0  0  0  0  0  0  0  0
   -9.5499   -0.9221    7.3582 H   0  0  0  0  0  0  0  0  0  0  0  0
   -8.3260   -2.9307    7.9742 H   0  0  0  0  0  0  0  0  0  0  0  0
   -7.0385   -3.5263    6.9222 H   0  0  0  0  0  0  0  0  0  0  0  0
   -7.4925   -5.3876    8.3713 H   0  0  0  0  0  0  0  0  0  0  0  0
   -7.1407   -6.0183    6.7287 H   0  0  0  0  0  0  0  0  0  0  0  0
   -7.7606   -8.2772    9.3270 H   0  0  0  0  0  0  0  0  0  0  0  0
   -6.9781   -8.5024    7.9598 H   0  0  0  0  0  0  0  0  0  0  0  0
   -8.4185  -11.3829    7.7134 H   0  0  0  0  0  0  0  0  0  0  0  0
   -9.3958  -10.7795    6.1244 H   0  0  0  0  0  0  0  0  0  0  0  0
   -9.3101  -13.9079    8.2049 H   0  0  0  0  0  0  0  0  0  0  0  0
  -11.4794  -16.1221    7.4765 H   0  0  0  0  0  0  0  0  0  0  0  0
  -13.1635  -16.0600    5.7710 H   0  0  0  0  0  0  0  0  0  0  0  0
  -13.4723  -13.7715    4.6544 H   0  0  0  0  0  0  0  0  0  0  0  0
  -10.1283   -8.5646    5.2711 H   0  0  0  0  0  0  0  0  0  0  0  0
  -11.0753   -8.3528    6.6360 H   0  0  0  0  0  0  0  0  0  0  0  0
  1  2  1  0
  2  3  1  0
  2  4  1  0
  4  5  1  0
  4  6  1  0
  6  7  1  0
  7  8  2  0
  8  9  1  0
  9 10  2  0
 10 11  1  0
 11 12  1  0
 12 13  1  0
 13 14  1  0
 14 15  1  0
 15 16  1  0
 16 17  2  0
 17 18  1  0
 18 19  2  0
 19 20  1  0
 20 21  2  0
 14 22  1  0
 11  7  1  0
 21 16  1  0
 22 10  1  0
  1 23  1  0
  1 24  1  0
  1 25  1  0
  2 26  1  0
  3 27  1  0
  3 28  1  0
  3 29  1  0
  5 30  1  0
  5 31  1  0
  5 32  1  0
  6 33  1  0
  6 34  1  0
 12 35  1  0
 12 36  1  0
 13 37  1  0
 13 38  1  0
 15 39  1  0
 15 40  1  0
 17 41  1  0
 18 42  1  0
 19 43  1  0
 20 44  1  0
 22 45  1  0
 22 46  1  0
M  END
>  <Energy>  (970) 
728.76318187216327

>  <compound_id>  (970) 
34277

>  <target_id>  (970) 
1

>  <reference_id>  (970) 
48

>  <inspiration_ids>  (970) 
[65, 48]

>  <energy_score>  (970) 
613.246463528591

>  <distance_score>  (970) 
9.39195704485884

>  <path>  (970) 
/opt/xchem-fragalysis-2/maxwin/BulkDock/SCRATCH/511025/C34277-P48/C34277-P48.minimised.mol

>  <scratch_subdir>  (970) 
/opt/xchem-fragalysis-2/maxwin/BulkDock/SCRATCH/511025/C34277-P48

>  <fragmenstein_runtime>  (970) 
12.307801246643066

>  <fragmenstein_outcome>  (970) 
too moved

>  <fragmenstein_mode>  (970) 
expansion

>  <fragmenstein_error>  (970) 


$$$$
C34278-P65
     RDKit          3D

 34 36  0  0  0  0  0  0  0  0999 V2000
  -14.2618  -15.5131    2.9941 C   0  0  0  0  0  0  0  0  0  0  0  0
  -13.5613  -16.3861    3.7964 C   0  0  0  0  0  0  0  0  0  0  0  0
  -12.8265  -15.8437    4.8374 C   0  0  0  0  0  0  0  0  0  0  0  0
  -12.7923  -14.4360    5.0732 C   0  0  0  0  0  0  0  0  0  0  0  0
  -12.0675  -13.9168    6.4921 C   0  0  0  0  0  0  0  0  0  0  0  0
  -10.2537  -13.0897    7.2585 N   0  0  0  0  0  0  0  0  0  0  0  0
   -9.0833  -11.4052    7.5056 C   0  0  0  0  0  0  0  0  0  0  0  0
   -7.3687  -10.3449    8.1016 C   0  0  0  0  0  0  0  0  0  0  0  0
   -7.9878   -8.9506    8.6400 N   0  0  0  0  0  0  0  0  0  0  0  0
   -7.2705   -8.1715    9.4316 N   0  0  0  0  0  0  0  0  0  0  0  0
   -7.2779   -7.5266    8.3601 C   0  0  0  0  0  0  0  0  0  0  0  0
   -6.5364   -8.7758    7.4783 N   0  0  0  0  0  0  0  0  0  0  0  0
   -6.3656   -7.7654    5.7906 C   0  0  0  0  0  0  0  0  0  0  0  0
   -6.5919   -5.7544    5.8151 C   0  0  0  0  0  0  0  0  0  0  0  0
   -7.6311   -5.0687    6.5516 N   0  0  0  0  0  0  0  0  0  0  0  0
   -7.8506   -5.7159    7.8128 C   0  0  0  0  0  0  0  0  0  0  0  0
  -13.4489  -13.5751    4.2721 N   0  0  0  0  0  0  0  0  0  0  0  0
  -14.1715  -14.1482    3.2684 C   0  0  0  0  0  0  0  0  0  0  0  0
  -14.8720  -15.8714    2.1735 H   0  0  0  0  0  0  0  0  0  0  0  0
  -13.5996  -17.4591    3.6463 H   0  0  0  0  0  0  0  0  0  0  0  0
  -12.2887  -16.5278    5.4842 H   0  0  0  0  0  0  0  0  0  0  0  0
  -11.7649  -15.0423    6.6266 H   0  0  0  0  0  0  0  0  0  0  0  0
  -12.9672  -14.0922    7.0941 H   0  0  0  0  0  0  0  0  0  0  0  0
   -9.6352  -13.5255    6.5850 H   0  0  0  0  0  0  0  0  0  0  0  0
   -9.4235  -10.8311    6.6102 H   0  0  0  0  0  0  0  0  0  0  0  0
   -9.6493  -10.7999    8.1646 H   0  0  0  0  0  0  0  0  0  0  0  0
   -5.6415   -8.3969    5.2146 H   0  0  0  0  0  0  0  0  0  0  0  0
   -6.4826   -7.2710    6.6423 H   0  0  0  0  0  0  0  0  0  0  0  0
   -6.4857   -5.3188    4.7898 H   0  0  0  0  0  0  0  0  0  0  0  0
   -5.8280   -5.1284    6.2475 H   0  0  0  0  0  0  0  0  0  0  0  0
   -8.4797   -5.1397    5.9820 H   0  0  0  0  0  0  0  0  0  0  0  0
   -8.9518   -5.7319    7.7944 H   0  0  0  0  0  0  0  0  0  0  0  0
   -7.4643   -5.0497    8.6039 H   0  0  0  0  0  0  0  0  0  0  0  0
  -14.7174  -13.4378    2.6512 H   0  0  0  0  0  0  0  0  0  0  0  0
  1  2  2  0
  2  3  1  0
  3  4  2  0
  4  5  1  0
  5  6  1  0
  6  7  1  0
  7  8  1  0
  8  9  2  0
  9 10  1  0
 10 11  2  0
 11 12  1  0
 12 13  1  0
 13 14  1  0
 14 15  1  0
 15 16  1  0
  4 17  1  0
 17 18  2  0
 18  1  1  0
 12  8  1  0
 16 11  1  0
  1 19  1  0
  2 20  1  0
  3 21  1  0
  5 22  1  0
  5 23  1  0
  6 24  1  0
  7 25  1  0
  7 26  1  0
 13 27  1  0
 13 28  1  0
 14 29  1  0
 14 30  1  0
 15 31  1  0
 16 32  1  0
 16 33  1  0
 18 34  1  0
M  END
>  <Energy>  (971) 
1108.0839524217674

>  <compound_id>  (971) 
34278

>  <target_id>  (971) 
1

>  <reference_id>  (971) 
65

>  <inspiration_ids>  (971) 
[65, 48]

>  <energy_score>  (971) 
1032.9156874260293

>  <distance_score>  (971) 
9.293714094547429

>  <path>  (971) 
/opt/xchem-fragalysis-2/maxwin/BulkDock/SCRATCH/511025/C34278-P65/C34278-P65.minimised.mol

>  <scratch_subdir>  (971) 
/opt/xchem-fragalysis-2/maxwin/BulkDock/SCRATCH/511025/C34278-P65

>  <fragmenstein_runtime>  (971) 
6.381232023239136

>  <fragmenstein_outcome>  (971) 
too moved

>  <fragmenstein_mode>  (971) 
expansion

>  <fragmenstein_error>  (971) 


$$$$
C34278-P48
     RDKit          3D

 34 36  0  0  0  0  0  0  0  0999 V2000
  -13.7541  -17.1459    3.4040 C   0  0  0  0  0  0  0  0  0  0  0  0
  -12.6553  -17.8610    3.8184 C   0  0  0  0  0  0  0  0  0  0  0  0
  -11.8105  -17.2944    4.7758 C   0  0  0  0  0  0  0  0  0  0  0  0
  -12.0521  -16.0178    5.3316 C   0  0  0  0  0  0  0  0  0  0  0  0
  -11.3679  -15.4297    6.7262 C   0  0  0  0  0  0  0  0  0  0  0  0
   -9.8549  -14.2249    7.3672 N   0  0  0  0  0  0  0  0  0  0  0  0
   -9.2187  -12.7835    7.2985 C   0  0  0  0  0  0  0  0  0  0  0  0
   -8.9848  -10.8652    7.8113 C   0  0  0  0  0  0  0  0  0  0  0  0
   -7.5834  -10.6879    8.3036 N   0  0  0  0  0  0  0  0  0  0  0  0
   -6.9922   -8.9581    8.3267 N   0  0  0  0  0  0  0  0  0  0  0  0
   -7.9671   -8.0660    8.3074 C   0  0  0  0  0  0  0  0  0  0  0  0
   -9.3587   -9.0666    7.8892 N   0  0  0  0  0  0  0  0  0  0  0  0
  -10.2381   -7.9739    6.9514 C   0  0  0  0  0  0  0  0  0  0  0  0
   -9.8039   -6.3000    6.2241 C   0  0  0  0  0  0  0  0  0  0  0  0
   -8.9214   -5.4379    6.9692 N   0  0  0  0  0  0  0  0  0  0  0  0
   -7.8252   -6.1340    7.5940 C   0  0  0  0  0  0  0  0  0  0  0  0
  -13.0961  -15.2896    4.8350 N   0  0  0  0  0  0  0  0  0  0  0  0
  -13.9197  -15.8776    3.9296 C   0  0  0  0  0  0  0  0  0  0  0  0
  -14.4589  -17.5501    2.6888 H   0  0  0  0  0  0  0  0  0  0  0  0
  -12.4666  -18.8609    3.4426 H   0  0  0  0  0  0  0  0  0  0  0  0
  -11.0111  -17.9411    5.0920 H   0  0  0  0  0  0  0  0  0  0  0  0
  -11.4757  -16.2397    7.4383 H   0  0  0  0  0  0  0  0  0  0  0  0
  -12.2655  -14.8006    6.8817 H   0  0  0  0  0  0  0  0  0  0  0  0
   -9.7592  -14.3911    8.3846 H   0  0  0  0  0  0  0  0  0  0  0  0
   -9.7520  -12.5190    6.3935 H   0  0  0  0  0  0  0  0  0  0  0  0
   -9.4176  -12.8349    8.3890 H   0  0  0  0  0  0  0  0  0  0  0  0
   -9.8352   -7.3863    7.7058 H   0  0  0  0  0  0  0  0  0  0  0  0
  -10.0857   -8.3894    5.9625 H   0  0  0  0  0  0  0  0  0  0  0  0
  -10.5661   -5.5243    6.1286 H   0  0  0  0  0  0  0  0  0  0  0  0
   -9.9633   -6.4179    5.1499 H   0  0  0  0  0  0  0  0  0  0  0  0
   -8.5738   -4.6929    6.3640 H   0  0  0  0  0  0  0  0  0  0  0  0
   -7.4171   -5.4490    8.3778 H   0  0  0  0  0  0  0  0  0  0  0  0
   -7.1403   -6.0959    6.7059 H   0  0  0  0  0  0  0  0  0  0  0  0
  -14.7640  -15.2648    3.6269 H   0  0  0  0  0  0  0  0  0  0  0  0
  1  2  2  0
  2  3  1  0
  3  4  2  0
  4  5  1  0
  5  6  1  0
  6  7  1  0
  7  8  1  0
  8  9  2  0
  9 10  1  0
 10 11  2  0
 11 12  1  0
 12 13  1  0
 13 14  1  0
 14 15  1  0
 15 16  1  0
  4 17  1  0
 17 18  2  0
 18  1  1  0
 12  8  1  0
 16 11  1  0
  1 19  1  0
  2 20  1  0
  3 21  1  0
  5 22  1  0
  5 23  1  0
  6 24  1  0
  7 25  1  0
  7 26  1  0
 13 27  1  0
 13 28  1  0
 14 29  1  0
 14 30  1  0
 15 31  1  0
 16 32  1  0
 16 33  1  0
 18 34  1  0
M  END
>  <Energy>  (972) 
794.45627050982159

>  <compound_id>  (972) 
34278

>  <target_id>  (972) 
1

>  <reference_id>  (972) 
48

>  <inspiration_ids>  (972) 
[65, 48]

>  <energy_score>  (972) 
719.2880055140814

>  <distance_score>  (972) 
9.15281396552524

>  <path>  (972) 
/opt/xchem-fragalysis-2/maxwin/BulkDock/SCRATCH/511025/C34278-P48/C34278-P48.minimised.mol

>  <scratch_subdir>  (972) 
/opt/xchem-fragalysis-2/maxwin/BulkDock/SCRATCH/511025/C34278-P48

>  <fragmenstein_runtime>  (972) 
4.897092342376709

>  <fragmenstein_outcome>  (972) 
too moved

>  <fragmenstein_mode>  (972) 
expansion

>  <fragmenstein_error>  (972) 


$$$$
C34288-P65
     RDKit          3D

 48 51  0  0  0  0  0  0  0  0999 V2000
   -6.0592   -2.4657    6.1000 C   0  0  0  0  0  0  0  0  0  0  0  0
   -7.4007   -2.2843    5.8106 C   0  0  0  0  0  0  0  0  0  0  0  0
   -7.8582   -2.6016    4.5373 C   0  0  0  0  0  0  0  0  0  0  0  0
   -6.9620   -3.1206    3.5988 C   0  0  0  0  0  0  0  0  0  0  0  0
   -7.4221   -3.3724    2.2386 C   0  0  0  0  0  0  0  0  0  0  0  0
   -8.3340   -2.6270    1.6355 N   0  0  0  0  0  0  0  0  0  0  0  0
   -8.6080   -3.1657    0.4098 N   0  0  0  0  0  0  0  0  0  0  0  0
   -7.9074   -4.2723    0.2889 C   0  0  0  0  0  0  0  0  0  0  0  0
   -7.0934   -4.3997    1.3834 N   0  0  0  0  0  0  0  0  0  0  0  0
   -6.2278   -5.5384    1.5587 C   0  0  0  0  0  0  0  0  0  0  0  0
   -6.1929   -6.4747    0.3164 C   0  0  0  0  0  0  0  0  0  0  0  0
   -7.4029   -6.6076   -0.5204 N   0  0  0  0  0  0  0  0  0  0  0  0
   -8.3643   -7.7465   -0.3677 C   0  0  0  0  0  0  0  0  0  0  0  0
   -8.2881   -8.9484   -1.4199 C   0  0  0  0  0  0  0  0  0  0  0  0
   -9.0467  -10.3897   -1.1910 C   0  0  0  0  0  0  0  0  0  0  0  0
   -8.1410  -11.6693   -1.2683 C   0  0  0  0  0  0  0  0  0  0  0  0
   -8.3689  -12.7259   -0.1608 C   0  0  0  0  0  0  0  0  0  0  0  0
   -9.8234  -13.1397   -0.0288 C   0  0  0  0  0  0  0  0  0  0  0  0
  -10.7537  -11.9304   -0.0869 C   0  0  0  0  0  0  0  0  0  0  0  0
  -10.0292  -10.5567   -0.0294 C   0  0  0  0  0  0  0  0  0  0  0  0
   -7.9697   -5.2747   -0.8253 C   0  0  0  0  0  0  0  0  0  0  0  0
   -5.6554   -3.3372    3.8627 N   0  0  0  0  0  0  0  0  0  0  0  0
   -5.2419   -2.9778    5.1043 C   0  0  0  0  0  0  0  0  0  0  0  0
   -5.6574   -2.2111    7.0747 H   0  0  0  0  0  0  0  0  0  0  0  0
   -8.0804   -1.8862    6.5591 H   0  0  0  0  0  0  0  0  0  0  0  0
   -8.9005   -2.4384    4.2759 H   0  0  0  0  0  0  0  0  0  0  0  0
   -6.5802   -6.0870    2.4286 H   0  0  0  0  0  0  0  0  0  0  0  0
   -5.2226   -5.1693    1.7748 H   0  0  0  0  0  0  0  0  0  0  0  0
   -5.7942   -7.4408    0.6161 H   0  0  0  0  0  0  0  0  0  0  0  0
   -5.4192   -6.0683   -0.3513 H   0  0  0  0  0  0  0  0  0  0  0  0
   -8.3128   -8.1452    0.6422 H   0  0  0  0  0  0  0  0  0  0  0  0
   -9.3706   -7.3465   -0.4979 H   0  0  0  0  0  0  0  0  0  0  0  0
   -8.7099   -8.5415   -2.3513 H   0  0  0  0  0  0  0  0  0  0  0  0
   -7.2394   -9.1391   -1.6794 H   0  0  0  0  0  0  0  0  0  0  0  0
   -9.6716  -10.4570   -2.0965 H   0  0  0  0  0  0  0  0  0  0  0  0
   -8.3332  -12.1543   -2.2355 H   0  0  0  0  0  0  0  0  0  0  0  0
   -7.0834  -11.3935   -1.2991 H   0  0  0  0  0  0  0  0  0  0  0  0
   -8.0462  -12.3173    0.8023 H   0  0  0  0  0  0  0  0  0  0  0  0
   -7.7463  -13.6061   -0.3564 H   0  0  0  0  0  0  0  0  0  0  0  0
   -9.9641  -13.6857    0.9091 H   0  0  0  0  0  0  0  0  0  0  0  0
  -10.0880  -13.8361   -0.8335 H   0  0  0  0  0  0  0  0  0  0  0  0
  -11.3196  -11.9737   -1.0273 H   0  0  0  0  0  0  0  0  0  0  0  0
  -11.5073  -12.0093    0.7013 H   0  0  0  0  0  0  0  0  0  0  0  0
  -10.7855   -9.7684   -0.0853 H   0  0  0  0  0  0  0  0  0  0  0  0
   -9.4838  -10.4390    0.9120 H   0  0  0  0  0  0  0  0  0  0  0  0
   -9.0012   -5.3537   -1.1873 H   0  0  0  0  0  0  0  0  0  0  0  0
   -7.3960   -4.8610   -1.6647 H   0  0  0  0  0  0  0  0  0  0  0  0
   -4.1855   -3.1189    5.3024 H   0  0  0  0  0  0  0  0  0  0  0  0
  1  2  2  0
  2  3  1  0
  3  4  2  0
  4  5  1  0
  5  6  2  0
  6  7  1  0
  7  8  2  0
  8  9  1  0
  9 10  1  0
 10 11  1  0
 11 12  1  0
 12 13  1  0
 13 14  1  0
 14 15  1  0
 15 16  1  0
 16 17  1  0
 17 18  1  0
 18 19  1  0
 19 20  1  0
 12 21  1  0
  4 22  1  0
 22 23  2  0
 23  1  1  0
  9  5  1  0
 20 15  1  0
 21  8  1  0
  1 24  1  0
  2 25  1  0
  3 26  1  0
 10 27  1  0
 10 28  1  0
 11 29  1  0
 11 30  1  0
 13 31  1  0
 13 32  1  0
 14 33  1  0
 14 34  1  0
 15 35  1  0
 16 36  1  0
 16 37  1  0
 17 38  1  0
 17 39  1  0
 18 40  1  0
 18 41  1  0
 19 42  1  0
 19 43  1  0
 20 44  1  0
 20 45  1  0
 21 46  1  0
 21 47  1  0
 23 48  1  0
M  END
>  <Energy>  (973) 
88.68136841613682

>  <compound_id>  (973) 
34288

>  <target_id>  (973) 
1

>  <reference_id>  (973) 
65

>  <inspiration_ids>  (973) 
[65, 48]

>  <energy_score>  (973) 
-14.148568478402638

>  <distance_score>  (973) 
12.802218644168743

>  <path>  (973) 
/opt/xchem-fragalysis-2/maxwin/BulkDock/SCRATCH/511025/C34288-P65/C34288-P65.minimised.mol

>  <scratch_subdir>  (973) 
/opt/xchem-fragalysis-2/maxwin/BulkDock/SCRATCH/511025/C34288-P65

>  <fragmenstein_runtime>  (973) 
12.728495121002197

>  <fragmenstein_outcome>  (973) 
too moved

>  <fragmenstein_mode>  (973) 
expansion

>  <fragmenstein_error>  (973) 


$$$$
C34288-P48
     RDKit          3D

 48 51  0  0  0  0  0  0  0  0999 V2000
   -6.4068   -1.1407    7.1886 C   0  0  0  0  0  0  0  0  0  0  0  0
   -7.7698   -0.9513    7.3850 C   0  0  0  0  0  0  0  0  0  0  0  0
   -8.6497   -1.9933    7.1052 C   0  0  0  0  0  0  0  0  0  0  0  0
   -8.1284   -3.2007    6.6569 C   0  0  0  0  0  0  0  0  0  0  0  0
   -9.0103   -4.3032    6.3007 C   0  0  0  0  0  0  0  0  0  0  0  0
   -9.9164   -4.2899    5.3638 N   0  0  0  0  0  0  0  0  0  0  0  0
  -10.5350   -5.5390    5.2881 N   0  0  0  0  0  0  0  0  0  0  0  0
   -9.9693   -6.3531    6.1420 C   0  0  0  0  0  0  0  0  0  0  0  0
   -9.0050   -5.5812    6.8077 N   0  0  0  0  0  0  0  0  0  0  0  0
   -7.8959   -6.0933    7.5652 C   0  0  0  0  0  0  0  0  0  0  0  0
   -7.9842   -8.0426    8.2592 C   0  0  0  0  0  0  0  0  0  0  0  0
   -9.4253   -9.0319    7.5680 N   0  0  0  0  0  0  0  0  0  0  0  0
   -9.3053  -10.8715    7.1493 C   0  0  0  0  0  0  0  0  0  0  0  0
  -10.1234  -12.5364    6.2441 C   0  0  0  0  0  0  0  0  0  0  0  0
  -12.0202  -13.4139    5.4990 C   0  0  0  0  0  0  0  0  0  0  0  0
  -12.4673  -15.1096    4.9182 C   0  0  0  0  0  0  0  0  0  0  0  0
  -13.9371  -15.4491    5.1693 C   0  0  0  0  0  0  0  0  0  0  0  0
  -14.8145  -14.6737    4.2197 C   0  0  0  0  0  0  0  0  0  0  0  0
  -14.1612  -13.3591    3.8155 C   0  0  0  0  0  0  0  0  0  0  0  0
  -13.4296  -12.6660    4.9774 C   0  0  0  0  0  0  0  0  0  0  0  0
  -10.2680   -7.9537    6.2192 C   0  0  0  0  0  0  0  0  0  0  0  0
   -6.7985   -3.4162    6.4783 N   0  0  0  0  0  0  0  0  0  0  0  0
   -5.9751   -2.3746    6.7299 C   0  0  0  0  0  0  0  0  0  0  0  0
   -5.6966   -0.3482    7.3919 H   0  0  0  0  0  0  0  0  0  0  0  0
   -8.1502   -0.0010    7.7496 H   0  0  0  0  0  0  0  0  0  0  0  0
   -9.7198   -1.8702    7.2437 H   0  0  0  0  0  0  0  0  0  0  0  0
   -7.1588   -6.0102    6.7266 H   0  0  0  0  0  0  0  0  0  0  0  0
   -7.5827   -5.3449    8.3265 H   0  0  0  0  0  0  0  0  0  0  0  0
   -7.0064   -8.4670    7.9566 H   0  0  0  0  0  0  0  0  0  0  0  0
   -7.8350   -8.2969    9.3060 H   0  0  0  0  0  0  0  0  0  0  0  0
   -8.4044  -11.3347    7.5662 H   0  0  0  0  0  0  0  0  0  0  0  0
   -9.5653  -10.8526    8.1858 H   0  0  0  0  0  0  0  0  0  0  0  0
   -9.5840  -13.2605    6.9559 H   0  0  0  0  0  0  0  0  0  0  0  0
   -9.5846  -12.4689    5.2504 H   0  0  0  0  0  0  0  0  0  0  0  0
  -12.2319  -14.1389    6.3865 H   0  0  0  0  0  0  0  0  0  0  0  0
  -11.8916  -15.8698    5.4692 H   0  0  0  0  0  0  0  0  0  0  0  0
  -12.3007  -15.2469    3.8450 H   0  0  0  0  0  0  0  0  0  0  0  0
  -14.2074  -15.2138    6.2044 H   0  0  0  0  0  0  0  0  0  0  0  0
  -14.1128  -16.5177    5.0092 H   0  0  0  0  0  0  0  0  0  0  0  0
  -15.0156  -15.2615    3.3160 H   0  0  0  0  0  0  0  0  0  0  0  0
  -15.7871  -14.4885    4.6909 H   0  0  0  0  0  0  0  0  0  0  0  0
  -14.9461  -12.6911    3.4385 H   0  0  0  0  0  0  0  0  0  0  0  0
  -13.4717  -13.5047    2.9758 H   0  0  0  0  0  0  0  0  0  0  0  0
  -13.3180  -11.6320    4.6691 H   0  0  0  0  0  0  0  0  0  0  0  0
  -14.1569  -12.6189    5.8006 H   0  0  0  0  0  0  0  0  0  0  0  0
  -11.3632   -8.0178    6.3802 H   0  0  0  0  0  0  0  0  0  0  0  0
  -10.1876   -8.4370    5.2403 H   0  0  0  0  0  0  0  0  0  0  0  0
   -4.9196   -2.5669    6.5603 H   0  0  0  0  0  0  0  0  0  0  0  0
  1  2  2  0
  2  3  1  0
  3  4  2  0
  4  5  1  0
  5  6  2  0
  6  7  1  0
  7  8  2  0
  8  9  1  0
  9 10  1  0
 10 11  1  0
 11 12  1  0
 12 13  1  0
 13 14  1  0
 14 15  1  0
 15 16  1  0
 16 17  1  0
 17 18  1  0
 18 19  1  0
 19 20  1  0
 12 21  1  0
  4 22  1  0
 22 23  2  0
 23  1  1  0
  9  5  1  0
 20 15  1  0
 21  8  1  0
  1 24  1  0
  2 25  1  0
  3 26  1  0
 10 27  1  0
 10 28  1  0
 11 29  1  0
 11 30  1  0
 13 31  1  0
 13 32  1  0
 14 33  1  0
 14 34  1  0
 15 35  1  0
 16 36  1  0
 16 37  1  0
 17 38  1  0
 17 39  1  0
 18 40  1  0
 18 41  1  0
 19 42  1  0
 19 43  1  0
 20 44  1  0
 20 45  1  0
 21 46  1  0
 21 47  1  0
 23 48  1  0
M  END
>  <Energy>  (974) 
648.25080667694328

>  <compound_id>  (974) 
34288

>  <target_id>  (974) 
1

>  <reference_id>  (974) 
48

>  <inspiration_ids>  (974) 
[65, 48]

>  <energy_score>  (974) 
545.4208697824022

>  <distance_score>  (974) 
9.659047585880263

>  <path>  (974) 
/opt/xchem-fragalysis-2/maxwin/BulkDock/SCRATCH/511025/C34288-P48/C34288-P48.minimised.mol

>  <scratch_subdir>  (974) 
/opt/xchem-fragalysis-2/maxwin/BulkDock/SCRATCH/511025/C34288-P48

>  <fragmenstein_runtime>  (974) 
13.378670692443848

>  <fragmenstein_outcome>  (974) 
too moved

>  <fragmenstein_mode>  (974) 
expansion

>  <fragmenstein_error>  (974) 


$$$$
C50452-P65
     RDKit          3D

 39 41  0  0  0  0  0  0  0  0999 V2000
   -5.6212   -9.6963    8.0340 O   0  0  0  0  0  0  0  0  0  0  0  0
   -6.8093   -9.5232    7.8944 C   0  0  0  0  0  0  0  0  0  0  0  0
   -7.8095  -11.4684    7.3221 C   0  0  0  0  0  0  0  0  0  0  0  0
   -6.7076  -14.0557    7.0138 S   0  0  0  0  0  0  0  0  0  0  0  0
   -7.3768  -16.0952    8.3267 C   0  0  0  0  0  0  0  0  0  0  0  0
   -6.3942  -17.6936    8.3571 C   0  0  0  0  0  0  0  0  0  0  0  0
   -6.3389  -19.1595    8.1965 C   0  0  0  0  0  0  0  0  0  0  0  0
   -7.0574  -19.6510    7.2264 N   0  0  0  0  0  0  0  0  0  0  0  0
   -8.0705  -18.8754    7.0115 C   0  0  0  0  0  0  0  0  0  0  0  0
   -8.0723  -17.5012    7.6172 C   0  0  0  0  0  0  0  0  0  0  0  0
   -7.5313   -7.7453    8.3925 N   0  0  0  0  0  0  0  0  0  0  0  0
   -7.7706   -6.0460    7.2588 C   0  0  0  0  0  0  0  0  0  0  0  0
   -7.0601   -4.7430    6.5830 C   0  0  0  0  0  0  0  0  0  0  0  0
   -7.0523   -3.8535    7.6538 N   0  0  0  0  0  0  0  0  0  0  0  0
   -7.7657   -2.6884    7.5940 C   0  0  0  0  0  0  0  0  0  0  0  0
   -7.3733   -1.5139    6.7762 C   0  0  0  0  0  0  0  0  0  0  0  0
   -5.9229   -1.1014    7.0203 C   0  0  0  0  0  0  0  0  0  0  0  0
   -5.0283   -2.0148    6.3789 O   0  0  0  0  0  0  0  0  0  0  0  0
   -8.8759   -2.9178    8.2467 N   0  0  0  0  0  0  0  0  0  0  0  0
   -8.7553   -4.1624    8.8616 N   0  0  0  0  0  0  0  0  0  0  0  0
   -7.5066   -4.6071    8.7358 C   0  0  0  0  0  0  0  0  0  0  0  0
   -6.7155   -6.2252    9.2220 C   0  0  0  0  0  0  0  0  0  0  0  0
   -8.9218  -11.1058    7.0863 H   0  0  0  0  0  0  0  0  0  0  0  0
   -8.6279  -11.7601    7.9724 H   0  0  0  0  0  0  0  0  0  0  0  0
   -5.2688  -17.7033    8.0845 H   0  0  0  0  0  0  0  0  0  0  0  0
   -5.4572  -19.7467    8.4517 H   0  0  0  0  0  0  0  0  0  0  0  0
   -8.9624  -19.2875    6.5514 H   0  0  0  0  0  0  0  0  0  0  0  0
   -9.0695  -17.6933    8.0275 H   0  0  0  0  0  0  0  0  0  0  0  0
   -8.8772   -5.8532    7.1634 H   0  0  0  0  0  0  0  0  0  0  0  0
   -7.1423   -6.3945    6.3978 H   0  0  0  0  0  0  0  0  0  0  0  0
   -7.7078   -4.3282    5.8015 H   0  0  0  0  0  0  0  0  0  0  0  0
   -6.0707   -4.7959    6.1542 H   0  0  0  0  0  0  0  0  0  0  0  0
   -8.0298   -0.6762    7.0377 H   0  0  0  0  0  0  0  0  0  0  0  0
   -7.5287   -1.7445    5.7162 H   0  0  0  0  0  0  0  0  0  0  0  0
   -5.6843   -1.0772    8.0872 H   0  0  0  0  0  0  0  0  0  0  0  0
   -5.7403   -0.1101    6.5939 H   0  0  0  0  0  0  0  0  0  0  0  0
   -4.1322   -1.7688    6.6732 H   0  0  0  0  0  0  0  0  0  0  0  0
   -7.1282   -5.6252   10.0062 H   0  0  0  0  0  0  0  0  0  0  0  0
   -6.0384   -6.5916   10.0168 H   0  0  0  0  0  0  0  0  0  0  0  0
  1  2  2  0
  2  3  1  0
  3  4  1  0
  4  5  1  0
  5  6  2  0
  6  7  1  0
  7  8  2  0
  8  9  1  0
  9 10  2  0
  2 11  1  0
 11 12  1  0
 12 13  1  0
 13 14  1  0
 14 15  1  0
 15 16  1  0
 16 17  1  0
 17 18  1  0
 15 19  2  0
 19 20  1  0
 20 21  2  0
 21 22  1  0
 10  5  1  0
 22 11  1  0
 21 14  1  0
  3 23  1  0
  3 24  1  0
  6 25  1  0
  7 26  1  0
  9 27  1  0
 10 28  1  0
 12 29  1  0
 12 30  1  0
 13 31  1  0
 13 32  1  0
 16 33  1  0
 16 34  1  0
 17 35  1  0
 17 36  1  0
 18 37  1  0
 22 38  1  0
 22 39  1  0
M  END
>  <Energy>  (975) 
1634.0000170382955

>  <compound_id>  (975) 
50452

>  <target_id>  (975) 
1

>  <reference_id>  (975) 
65

>  <inspiration_ids>  (975) 
[65, 48]

>  <energy_score>  (975) 
1582.3630928630016

>  <distance_score>  (975) 
7.204049246411406

>  <path>  (975) 
/opt/xchem-fragalysis-2/maxwin/BulkDock/SCRATCH/511025/C50452-P65/C50452-P65.minimised.mol

>  <scratch_subdir>  (975) 
/opt/xchem-fragalysis-2/maxwin/BulkDock/SCRATCH/511025/C50452-P65

>  <fragmenstein_runtime>  (975) 
10.292962074279785

>  <fragmenstein_outcome>  (975) 
too moved

>  <fragmenstein_mode>  (975) 
expansion

>  <fragmenstein_error>  (975) 


$$$$
C50452-P48
     RDKit          3D

 39 41  0  0  0  0  0  0  0  0999 V2000
   -7.7955   -8.5540    9.1309 O   0  0  0  0  0  0  0  0  0  0  0  0
   -8.6014   -8.6625    8.2360 C   0  0  0  0  0  0  0  0  0  0  0  0
   -9.0327  -10.8415    7.9067 C   0  0  0  0  0  0  0  0  0  0  0  0
   -9.1794  -13.3713    8.7042 S   0  0  0  0  0  0  0  0  0  0  0  0
   -7.2386  -15.0984    8.4971 C   0  0  0  0  0  0  0  0  0  0  0  0
   -6.6918  -16.4322    9.0309 C   0  0  0  0  0  0  0  0  0  0  0  0
   -6.2463  -18.3382    8.8606 C   0  0  0  0  0  0  0  0  0  0  0  0
   -6.9325  -19.3522    8.3675 N   0  0  0  0  0  0  0  0  0  0  0  0
   -7.8817  -18.6203    7.9698 C   0  0  0  0  0  0  0  0  0  0  0  0
   -7.6676  -16.8669    8.1762 C   0  0  0  0  0  0  0  0  0  0  0  0
   -9.2196   -6.8209    7.6682 N   0  0  0  0  0  0  0  0  0  0  0  0
   -8.4854   -5.8153    6.4235 C   0  0  0  0  0  0  0  0  0  0  0  0
   -9.4831   -4.8673    5.6946 C   0  0  0  0  0  0  0  0  0  0  0  0
   -9.3858   -3.6107    6.3634 N   0  0  0  0  0  0  0  0  0  0  0  0
   -9.0134   -2.3806    5.9103 C   0  0  0  0  0  0  0  0  0  0  0  0
   -8.9174   -1.9682    4.4852 C   0  0  0  0  0  0  0  0  0  0  0  0
   -7.5125   -2.1915    3.9295 C   0  0  0  0  0  0  0  0  0  0  0  0
   -7.3086   -3.5679    3.5958 O   0  0  0  0  0  0  0  0  0  0  0  0
   -8.6565   -1.6573    6.9514 N   0  0  0  0  0  0  0  0  0  0  0  0
   -8.6437   -2.4843    8.0509 N   0  0  0  0  0  0  0  0  0  0  0  0
   -9.0481   -3.6780    7.6674 C   0  0  0  0  0  0  0  0  0  0  0  0
   -8.8599   -5.0417    8.3765 C   0  0  0  0  0  0  0  0  0  0  0  0
   -9.2870  -10.9905    6.8705 H   0  0  0  0  0  0  0  0  0  0  0  0
   -9.8658  -10.5195    8.4406 H   0  0  0  0  0  0  0  0  0  0  0  0
   -5.9513  -17.4686    8.3108 H   0  0  0  0  0  0  0  0  0  0  0  0
   -5.1578  -18.7044    8.6619 H   0  0  0  0  0  0  0  0  0  0  0  0
   -8.7170  -19.0632    7.4426 H   0  0  0  0  0  0  0  0  0  0  0  0
   -7.6932  -17.2614    7.1850 H   0  0  0  0  0  0  0  0  0  0  0  0
   -7.7144   -5.1454    6.8555 H   0  0  0  0  0  0  0  0  0  0  0  0
   -7.4742   -6.1273    6.0790 H   0  0  0  0  0  0  0  0  0  0  0  0
  -10.4910   -5.2687    5.7703 H   0  0  0  0  0  0  0  0  0  0  0  0
   -9.2938   -4.6429    4.6495 H   0  0  0  0  0  0  0  0  0  0  0  0
   -9.6607   -2.4959    3.8787 H   0  0  0  0  0  0  0  0  0  0  0  0
   -9.1532   -0.8987    4.4293 H   0  0  0  0  0  0  0  0  0  0  0  0
   -6.7387   -1.8852    4.6421 H   0  0  0  0  0  0  0  0  0  0  0  0
   -7.3863   -1.6153    3.0072 H   0  0  0  0  0  0  0  0  0  0  0  0
   -6.3681   -3.6458    3.3527 H   0  0  0  0  0  0  0  0  0  0  0  0
   -7.7897   -5.0397    8.6837 H   0  0  0  0  0  0  0  0  0  0  0  0
   -9.4342   -4.8993    9.2913 H   0  0  0  0  0  0  0  0  0  0  0  0
  1  2  2  0
  2  3  1  0
  3  4  1  0
  4  5  1  0
  5  6  2  0
  6  7  1  0
  7  8  2  0
  8  9  1  0
  9 10  2  0
  2 11  1  0
 11 12  1  0
 12 13  1  0
 13 14  1  0
 14 15  1  0
 15 16  1  0
 16 17  1  0
 17 18  1  0
 15 19  2  0
 19 20  1  0
 20 21  2  0
 21 22  1  0
 10  5  1  0
 22 11  1  0
 21 14  1  0
  3 23  1  0
  3 24  1  0
  6 25  1  0
  7 26  1  0
  9 27  1  0
 10 28  1  0
 12 29  1  0
 12 30  1  0
 13 31  1  0
 13 32  1  0
 16 33  1  0
 16 34  1  0
 17 35  1  0
 17 36  1  0
 18 37  1  0
 22 38  1  0
 22 39  1  0
M  END
>  <Energy>  (976) 
1739.8905135798229

>  <compound_id>  (976) 
50452

>  <target_id>  (976) 
1

>  <reference_id>  (976) 
48

>  <inspiration_ids>  (976) 
[65, 48]

>  <energy_score>  (976) 
1688.2535894045088

>  <distance_score>  (976) 
7.671385100639588

>  <path>  (976) 
/opt/xchem-fragalysis-2/maxwin/BulkDock/SCRATCH/511025/C50452-P48/C50452-P48.minimised.mol

>  <scratch_subdir>  (976) 
/opt/xchem-fragalysis-2/maxwin/BulkDock/SCRATCH/511025/C50452-P48

>  <fragmenstein_runtime>  (976) 
8.810737609863281

>  <fragmenstein_outcome>  (976) 
too moved

>  <fragmenstein_mode>  (976) 
expansion

>  <fragmenstein_error>  (976) 


$$$$
C34290-P65
     RDKit          3D

 39 41  0  0  0  0  0  0  0  0999 V2000
   -8.7241   -8.8406    4.8678 O   0  0  0  0  0  0  0  0  0  0  0  0
   -6.9111   -8.3946    5.2501 C   0  0  0  0  0  0  0  0  0  0  0  0
   -5.7081   -9.2478    5.3541 C   0  0  0  0  0  0  0  0  0  0  0  0
   -4.3155  -10.6205    7.1711 S   0  0  0  0  0  0  0  0  0  0  0  0
   -4.3112  -12.8113    7.8672 C   0  0  0  0  0  0  0  0  0  0  0  0
   -3.4718  -13.4123    8.8940 C   0  0  0  0  0  0  0  0  0  0  0  0
   -3.4782  -14.8648    9.5873 C   0  0  0  0  0  0  0  0  0  0  0  0
   -4.6210  -15.5803    9.4536 C   0  0  0  0  0  0  0  0  0  0  0  0
   -5.4894  -14.8369    8.6768 C   0  0  0  0  0  0  0  0  0  0  0  0
   -5.2601  -13.7722    7.6933 N   0  0  0  0  0  0  0  0  0  0  0  0
   -6.5450   -6.5082    5.8078 N   0  0  0  0  0  0  0  0  0  0  0  0
   -7.5476   -5.0829    6.1855 C   0  0  0  0  0  0  0  0  0  0  0  0
   -8.0474   -3.7780    5.5275 C   0  0  0  0  0  0  0  0  0  0  0  0
   -6.8766   -3.0997    5.1081 N   0  0  0  0  0  0  0  0  0  0  0  0
   -6.3470   -1.8857    5.3950 C   0  0  0  0  0  0  0  0  0  0  0  0
   -7.0141   -0.8344    6.1996 C   0  0  0  0  0  0  0  0  0  0  0  0
   -6.1234    0.3896    6.4029 C   0  0  0  0  0  0  0  0  0  0  0  0
   -6.7885    1.3579    7.2106 O   0  0  0  0  0  0  0  0  0  0  0  0
   -5.1375   -1.8558    4.8730 N   0  0  0  0  0  0  0  0  0  0  0  0
   -4.8692   -3.0996    4.3505 N   0  0  0  0  0  0  0  0  0  0  0  0
   -5.9067   -3.8689    4.5759 C   0  0  0  0  0  0  0  0  0  0  0  0
   -6.1468   -5.3373    4.2995 C   0  0  0  0  0  0  0  0  0  0  0  0
   -6.0718   -9.3240    6.4106 H   0  0  0  0  0  0  0  0  0  0  0  0
   -4.9272   -8.6163    4.9116 H   0  0  0  0  0  0  0  0  0  0  0  0
   -2.6596  -12.7933    9.2972 H   0  0  0  0  0  0  0  0  0  0  0  0
   -2.7011  -15.1124   10.3027 H   0  0  0  0  0  0  0  0  0  0  0  0
   -4.9013  -16.4319   10.0453 H   0  0  0  0  0  0  0  0  0  0  0  0
   -6.5456  -15.0652    8.7233 H   0  0  0  0  0  0  0  0  0  0  0  0
   -6.9231   -4.6881    7.0020 H   0  0  0  0  0  0  0  0  0  0  0  0
   -8.4090   -5.4660    6.7500 H   0  0  0  0  0  0  0  0  0  0  0  0
   -8.7245   -3.8799    4.6754 H   0  0  0  0  0  0  0  0  0  0  0  0
   -8.5650   -3.1695    6.2773 H   0  0  0  0  0  0  0  0  0  0  0  0
   -7.9494   -0.5275    5.7162 H   0  0  0  0  0  0  0  0  0  0  0  0
   -7.2947   -1.2370    7.1807 H   0  0  0  0  0  0  0  0  0  0  0  0
   -5.8878    0.8626    5.4434 H   0  0  0  0  0  0  0  0  0  0  0  0
   -5.1760    0.1274    6.8877 H   0  0  0  0  0  0  0  0  0  0  0  0
   -6.7580    1.0321    8.1316 H   0  0  0  0  0  0  0  0  0  0  0  0
   -5.2005   -5.5768    3.7401 H   0  0  0  0  0  0  0  0  0  0  0  0
   -6.6877   -5.5599    3.3799 H   0  0  0  0  0  0  0  0  0  0  0  0
  1  2  2  0
  2  3  1  0
  3  4  1  0
  4  5  1  0
  5  6  2  0
  6  7  1  0
  7  8  2  0
  8  9  1  0
  9 10  2  0
  2 11  1  0
 11 12  1  0
 12 13  1  0
 13 14  1  0
 14 15  1  0
 15 16  1  0
 16 17  1  0
 17 18  1  0
 15 19  2  0
 19 20  1  0
 20 21  2  0
 21 22  1  0
 10  5  1  0
 22 11  1  0
 21 14  1  0
  3 23  1  0
  3 24  1  0
  6 25  1  0
  7 26  1  0
  8 27  1  0
  9 28  1  0
 12 29  1  0
 12 30  1  0
 13 31  1  0
 13 32  1  0
 16 33  1  0
 16 34  1  0
 17 35  1  0
 17 36  1  0
 18 37  1  0
 22 38  1  0
 22 39  1  0
M  END
>  <Energy>  (977) 
1023.0289379283064

>  <compound_id>  (977) 
34290

>  <target_id>  (977) 
1

>  <reference_id>  (977) 
65

>  <inspiration_ids>  (977) 
[65, 48]

>  <energy_score>  (977) 
979.8588305783776

>  <distance_score>  (977) 
9.951361169295186

>  <path>  (977) 
/opt/xchem-fragalysis-2/maxwin/BulkDock/SCRATCH/511025/C34290-P65/C34290-P65.minimised.mol

>  <scratch_subdir>  (977) 
/opt/xchem-fragalysis-2/maxwin/BulkDock/SCRATCH/511025/C34290-P65

>  <fragmenstein_runtime>  (977) 
9.012760400772095

>  <fragmenstein_outcome>  (977) 
too moved

>  <fragmenstein_mode>  (977) 
expansion

>  <fragmenstein_error>  (977) 


$$$$
C34290-P48
     RDKit          3D

 39 41  0  0  0  0  0  0  0  0999 V2000
   -7.5973   -8.6488    8.3947 O   0  0  0  0  0  0  0  0  0  0  0  0
   -8.7411   -8.7059    7.9610 C   0  0  0  0  0  0  0  0  0  0  0  0
   -9.3089  -10.8280    7.6426 C   0  0  0  0  0  0  0  0  0  0  0  0
   -9.6351  -13.4601    7.4369 S   0  0  0  0  0  0  0  0  0  0  0  0
  -11.0922  -15.4861    6.7900 C   0  0  0  0  0  0  0  0  0  0  0  0
  -11.3489  -16.9061    7.6807 C   0  0  0  0  0  0  0  0  0  0  0  0
  -10.4951  -18.6336    7.8951 C   0  0  0  0  0  0  0  0  0  0  0  0
  -10.2970  -19.3110    6.2739 C   0  0  0  0  0  0  0  0  0  0  0  0
  -10.9410  -18.1080    5.1959 C   0  0  0  0  0  0  0  0  0  0  0  0
  -11.2274  -16.3868    5.4461 N   0  0  0  0  0  0  0  0  0  0  0  0
   -9.4150   -6.8678    7.5687 N   0  0  0  0  0  0  0  0  0  0  0  0
   -8.6733   -5.1712    7.8710 C   0  0  0  0  0  0  0  0  0  0  0  0
   -7.3287   -4.7874    7.1359 C   0  0  0  0  0  0  0  0  0  0  0  0
   -7.7625   -3.9644    6.0747 N   0  0  0  0  0  0  0  0  0  0  0  0
   -7.3759   -2.8712    5.4062 C   0  0  0  0  0  0  0  0  0  0  0  0
   -6.1150   -2.1266    5.6545 C   0  0  0  0  0  0  0  0  0  0  0  0
   -5.5767   -1.4695    4.3851 C   0  0  0  0  0  0  0  0  0  0  0  0
   -5.1920   -2.4541    3.4253 O   0  0  0  0  0  0  0  0  0  0  0  0
   -8.2999   -2.6493    4.4897 N   0  0  0  0  0  0  0  0  0  0  0  0
   -9.2546   -3.6580    4.5889 N   0  0  0  0  0  0  0  0  0  0  0  0
   -8.8871   -4.4641    5.5594 C   0  0  0  0  0  0  0  0  0  0  0  0
   -9.3458   -5.9316    6.0978 C   0  0  0  0  0  0  0  0  0  0  0  0
   -9.4666  -10.8478    6.5876 H   0  0  0  0  0  0  0  0  0  0  0  0
   -9.8295  -10.7302    8.5338 H   0  0  0  0  0  0  0  0  0  0  0  0
  -12.0994  -16.7764    8.5030 H   0  0  0  0  0  0  0  0  0  0  0  0
  -10.6739  -19.3020    8.6993 H   0  0  0  0  0  0  0  0  0  0  0  0
  -10.1939  -20.3567    6.0466 H   0  0  0  0  0  0  0  0  0  0  0  0
  -11.1564  -18.3630    4.1585 H   0  0  0  0  0  0  0  0  0  0  0  0
   -8.4208   -4.9611    8.9166 H   0  0  0  0  0  0  0  0  0  0  0  0
   -9.4090   -4.3510    7.7695 H   0  0  0  0  0  0  0  0  0  0  0  0
   -6.8573   -5.6022    6.6005 H   0  0  0  0  0  0  0  0  0  0  0  0
   -6.6244   -4.2067    7.6977 H   0  0  0  0  0  0  0  0  0  0  0  0
   -6.2980   -1.3588    6.4144 H   0  0  0  0  0  0  0  0  0  0  0  0
   -5.3553   -2.8140    6.0461 H   0  0  0  0  0  0  0  0  0  0  0  0
   -6.3076   -0.7963    3.9244 H   0  0  0  0  0  0  0  0  0  0  0  0
   -4.6840   -0.8830    4.6250 H   0  0  0  0  0  0  0  0  0  0  0  0
   -6.0290   -2.8450    3.1044 H   0  0  0  0  0  0  0  0  0  0  0  0
   -9.9127   -6.5483    5.3789 H   0  0  0  0  0  0  0  0  0  0  0  0
  -10.2978   -5.4066    6.2472 H   0  0  0  0  0  0  0  0  0  0  0  0
  1  2  2  0
  2  3  1  0
  3  4  1  0
  4  5  1  0
  5  6  2  0
  6  7  1  0
  7  8  2  0
  8  9  1  0
  9 10  2  0
  2 11  1  0
 11 12  1  0
 12 13  1  0
 13 14  1  0
 14 15  1  0
 15 16  1  0
 16 17  1  0
 17 18  1  0
 15 19  2  0
 19 20  1  0
 20 21  2  0
 21 22  1  0
 10  5  1  0
 22 11  1  0
 21 14  1  0
  3 23  1  0
  3 24  1  0
  6 25  1  0
  7 26  1  0
  8 27  1  0
  9 28  1  0
 12 29  1  0
 12 30  1  0
 13 31  1  0
 13 32  1  0
 16 33  1  0
 16 34  1  0
 17 35  1  0
 17 36  1  0
 18 37  1  0
 22 38  1  0
 22 39  1  0
M  END
>  <Energy>  (978) 
1472.6143731835359

>  <compound_id>  (978) 
34290

>  <target_id>  (978) 
1

>  <reference_id>  (978) 
48

>  <inspiration_ids>  (978) 
[65, 48]

>  <energy_score>  (978) 
1429.4442658336004

>  <distance_score>  (978) 
6.976224706580622

>  <path>  (978) 
/opt/xchem-fragalysis-2/maxwin/BulkDock/SCRATCH/511025/C34290-P48/C34290-P48.minimised.mol

>  <scratch_subdir>  (978) 
/opt/xchem-fragalysis-2/maxwin/BulkDock/SCRATCH/511025/C34290-P48

>  <fragmenstein_runtime>  (978) 
9.32024335861206

>  <fragmenstein_outcome>  (978) 
too moved

>  <fragmenstein_mode>  (978) 
expansion

>  <fragmenstein_error>  (978) 


$$$$
C55520-P65
     RDKit          3D

 35 37  0  0  0  0  0  0  0  0999 V2000
   -9.2931  -11.0678    6.5114 O   0  0  0  0  0  0  0  0  0  0  0  0
   -9.3274  -10.9449    7.6113 C   0  0  0  0  0  0  0  0  0  0  0  0
   -9.2334  -12.9579    8.4990 C   0  0  0  0  0  0  0  0  0  0  0  0
   -7.4983  -14.9857    8.2665 S   0  0  0  0  0  0  0  0  0  0  0  0
   -7.5630  -17.3549    7.9075 C   0  0  0  0  0  0  0  0  0  0  0  0
   -8.2997  -18.3256    7.1931 C   0  0  0  0  0  0  0  0  0  0  0  0
   -7.7116  -19.3896    6.5240 C   0  0  0  0  0  0  0  0  0  0  0  0
   -6.6022  -20.0304    7.0061 N   0  0  0  0  0  0  0  0  0  0  0  0
   -6.0297  -19.5032    8.1117 C   0  0  0  0  0  0  0  0  0  0  0  0
   -6.3780  -18.2275    8.4684 C   0  0  0  0  0  0  0  0  0  0  0  0
   -9.6200   -9.0870    7.9497 N   0  0  0  0  0  0  0  0  0  0  0  0
   -8.0316   -7.9672    8.1835 C   0  0  0  0  0  0  0  0  0  0  0  0
   -7.8851   -5.9254    7.7049 C   0  0  0  0  0  0  0  0  0  0  0  0
   -8.8770   -5.0609    7.1055 N   0  0  0  0  0  0  0  0  0  0  0  0
   -9.7943   -5.7524    6.3494 C   0  0  0  0  0  0  0  0  0  0  0  0
  -10.3418   -4.8916    5.5135 N   0  0  0  0  0  0  0  0  0  0  0  0
   -9.7514   -3.6531    5.7199 N   0  0  0  0  0  0  0  0  0  0  0  0
   -8.7994   -3.7870    6.6214 C   0  0  0  0  0  0  0  0  0  0  0  0
   -7.7703   -2.7945    6.9990 C   0  0  0  0  0  0  0  0  0  0  0  0
   -7.6218   -1.8207    6.0593 F   0  0  0  0  0  0  0  0  0  0  0  0
   -6.5441   -3.3796    7.1148 F   0  0  0  0  0  0  0  0  0  0  0  0
  -10.0028   -7.5594    6.6566 C   0  0  0  0  0  0  0  0  0  0  0  0
   -9.7626  -13.1063    9.4411 H   0  0  0  0  0  0  0  0  0  0  0  0
   -9.7496  -13.3348    7.6214 H   0  0  0  0  0  0  0  0  0  0  0  0
   -9.2996  -18.6207    7.5318 H   0  0  0  0  0  0  0  0  0  0  0  0
   -8.2449  -19.8983    5.7244 H   0  0  0  0  0  0  0  0  0  0  0  0
   -5.2434  -20.0667    8.5983 H   0  0  0  0  0  0  0  0  0  0  0  0
   -5.8997  -17.9915    9.3932 H   0  0  0  0  0  0  0  0  0  0  0  0
   -7.8124   -8.1412    9.2386 H   0  0  0  0  0  0  0  0  0  0  0  0
   -7.0580   -8.4294    7.9076 H   0  0  0  0  0  0  0  0  0  0  0  0
   -7.2710   -5.8258    6.7637 H   0  0  0  0  0  0  0  0  0  0  0  0
   -7.4002   -5.3114    8.5021 H   0  0  0  0  0  0  0  0  0  0  0  0
   -8.0157   -2.3143    7.9498 H   0  0  0  0  0  0  0  0  0  0  0  0
  -10.1433   -7.9155    5.6441 H   0  0  0  0  0  0  0  0  0  0  0  0
   -9.5094   -6.8174    7.2438 H   0  0  0  0  0  0  0  0  0  0  0  0
  1  2  2  0
  2  3  1  0
  3  4  1  0
  4  5  1  0
  5  6  2  0
  6  7  1  0
  7  8  2  0
  8  9  1  0
  9 10  2  0
  2 11  1  0
 11 12  1  0
 12 13  1  0
 13 14  1  0
 14 15  1  0
 15 16  2  0
 16 17  1  0
 17 18  2  0
 18 19  1  0
 19 20  1  0
 19 21  1  0
 15 22  1  0
 10  5  1  0
 22 11  1  0
 18 14  1  0
  3 23  1  0
  3 24  1  0
  6 25  1  0
  7 26  1  0
  9 27  1  0
 10 28  1  0
 12 29  1  0
 12 30  1  0
 13 31  1  0
 13 32  1  0
 19 33  1  0
 22 34  1  0
 22 35  1  0
M  END
>  <Energy>  (979) 
1198.9225130948469

>  <compound_id>  (979) 
55520

>  <target_id>  (979) 
1

>  <reference_id>  (979) 
65

>  <inspiration_ids>  (979) 
[65, 48]

>  <energy_score>  (979) 
1148.2228783625114

>  <distance_score>  (979) 
7.724604676499048

>  <path>  (979) 
/opt/xchem-fragalysis-2/maxwin/BulkDock/SCRATCH/511025/C55520-P65/C55520-P65.minimised.mol

>  <scratch_subdir>  (979) 
/opt/xchem-fragalysis-2/maxwin/BulkDock/SCRATCH/511025/C55520-P65

>  <fragmenstein_runtime>  (979) 
7.601227521896362

>  <fragmenstein_outcome>  (979) 
too moved

>  <fragmenstein_mode>  (979) 
expansion

>  <fragmenstein_error>  (979) 


$$$$
C55520-P48
     RDKit          3D

 35 37  0  0  0  0  0  0  0  0999 V2000
   -8.3527   -8.7539    9.8836 O   0  0  0  0  0  0  0  0  0  0  0  0
   -8.2130   -8.8666    8.6683 C   0  0  0  0  0  0  0  0  0  0  0  0
   -8.9307  -10.8942    7.8379 C   0  0  0  0  0  0  0  0  0  0  0  0
   -9.6043  -13.4661    7.5270 S   0  0  0  0  0  0  0  0  0  0  0  0
  -11.0816  -15.4649    6.8326 C   0  0  0  0  0  0  0  0  0  0  0  0
  -11.3385  -16.9064    7.6836 C   0  0  0  0  0  0  0  0  0  0  0  0
  -10.5097  -18.6364    7.8915 C   0  0  0  0  0  0  0  0  0  0  0  0
  -10.3588  -19.3214    6.3064 N   0  0  0  0  0  0  0  0  0  0  0  0
  -11.0222  -18.1769    5.2292 C   0  0  0  0  0  0  0  0  0  0  0  0
  -11.3550  -16.4512    5.4932 C   0  0  0  0  0  0  0  0  0  0  0  0
   -7.6307   -7.2623    7.9908 N   0  0  0  0  0  0  0  0  0  0  0  0
   -8.9166   -5.9986    7.4085 C   0  0  0  0  0  0  0  0  0  0  0  0
   -8.7846   -4.8250    6.4137 C   0  0  0  0  0  0  0  0  0  0  0  0
   -7.4882   -4.3174    6.3983 N   0  0  0  0  0  0  0  0  0  0  0  0
   -6.7054   -4.4985    7.4790 C   0  0  0  0  0  0  0  0  0  0  0  0
   -5.6708   -3.6808    7.3010 N   0  0  0  0  0  0  0  0  0  0  0  0
   -5.7898   -3.0227    6.1065 N   0  0  0  0  0  0  0  0  0  0  0  0
   -6.9120   -3.4237    5.5549 C   0  0  0  0  0  0  0  0  0  0  0  0
   -7.5061   -2.9739    4.2813 C   0  0  0  0  0  0  0  0  0  0  0  0
   -7.6754   -4.0110    3.4109 F   0  0  0  0  0  0  0  0  0  0  0  0
   -8.7526   -2.4576    4.4817 F   0  0  0  0  0  0  0  0  0  0  0  0
   -7.1075   -5.5881    8.7845 C   0  0  0  0  0  0  0  0  0  0  0  0
   -9.2890  -10.7817    6.8295 H   0  0  0  0  0  0  0  0  0  0  0  0
   -9.7957  -10.5525    8.3261 H   0  0  0  0  0  0  0  0  0  0  0  0
  -12.1073  -16.7994    8.4978 H   0  0  0  0  0  0  0  0  0  0  0  0
   -9.5269  -18.9019    8.2461 H   0  0  0  0  0  0  0  0  0  0  0  0
  -11.2269  -18.6218    4.2571 H   0  0  0  0  0  0  0  0  0  0  0  0
  -11.8894  -16.0154    4.6401 H   0  0  0  0  0  0  0  0  0  0  0  0
   -9.6895   -6.5876    6.9333 H   0  0  0  0  0  0  0  0  0  0  0  0
   -9.1813   -5.3509    8.2437 H   0  0  0  0  0  0  0  0  0  0  0  0
   -9.4134   -3.9998    6.7916 H   0  0  0  0  0  0  0  0  0  0  0  0
   -9.2453   -4.9591    5.4411 H   0  0  0  0  0  0  0  0  0  0  0  0
   -6.8947   -2.2116    3.7915 H   0  0  0  0  0  0  0  0  0  0  0  0
   -7.8566   -4.9951    9.3108 H   0  0  0  0  0  0  0  0  0  0  0  0
   -6.3935   -5.8880    9.5300 H   0  0  0  0  0  0  0  0  0  0  0  0
  1  2  2  0
  2  3  1  0
  3  4  1  0
  4  5  1  0
  5  6  2  0
  6  7  1  0
  7  8  2  0
  8  9  1  0
  9 10  2  0
  2 11  1  0
 11 12  1  0
 12 13  1  0
 13 14  1  0
 14 15  1  0
 15 16  2  0
 16 17  1  0
 17 18  2  0
 18 19  1  0
 19 20  1  0
 19 21  1  0
 15 22  1  0
 10  5  1  0
 22 11  1  0
 18 14  1  0
  3 23  1  0
  3 24  1  0
  6 25  1  0
  7 26  1  0
  9 27  1  0
 10 28  1  0
 12 29  1  0
 12 30  1  0
 13 31  1  0
 13 32  1  0
 19 33  1  0
 22 34  1  0
 22 35  1  0
M  END
>  <Energy>  (980) 
1477.6755240381453

>  <compound_id>  (980) 
55520

>  <target_id>  (980) 
1

>  <reference_id>  (980) 
48

>  <inspiration_ids>  (980) 
[65, 48]

>  <energy_score>  (980) 
1426.9758893058001

>  <distance_score>  (980) 
6.966140449501148

>  <path>  (980) 
/opt/xchem-fragalysis-2/maxwin/BulkDock/SCRATCH/511025/C55520-P48/C55520-P48.minimised.mol

>  <scratch_subdir>  (980) 
/opt/xchem-fragalysis-2/maxwin/BulkDock/SCRATCH/511025/C55520-P48

>  <fragmenstein_runtime>  (980) 
7.2341601848602295

>  <fragmenstein_outcome>  (980) 
too moved

>  <fragmenstein_mode>  (980) 
expansion

>  <fragmenstein_error>  (980) 


$$$$
C34291-P65
     RDKit          3D

 38 40  0  0  0  0  0  0  0  0999 V2000
   -6.0883   -1.2299    1.5926 C   0  0  0  0  0  0  0  0  0  0  0  0
   -6.4061   -2.4895    2.3820 C   0  0  0  0  0  0  0  0  0  0  0  0
   -6.5820   -3.6669    1.4883 C   0  0  0  0  0  0  0  0  0  0  0  0
   -7.4348   -3.8103    0.4915 N   0  0  0  0  0  0  0  0  0  0  0  0
   -7.4344   -5.1433    0.0924 N   0  0  0  0  0  0  0  0  0  0  0  0
   -6.5695   -5.7830    0.8487 C   0  0  0  0  0  0  0  0  0  0  0  0
   -5.9424   -4.8522    1.6326 N   0  0  0  0  0  0  0  0  0  0  0  0
   -5.2702   -5.4501    2.7507 C   0  0  0  0  0  0  0  0  0  0  0  0
   -4.9048   -6.8801    2.2418 C   0  0  0  0  0  0  0  0  0  0  0  0
   -5.5846   -8.2546    2.1099 N   0  0  0  0  0  0  0  0  0  0  0  0
   -6.0627   -9.5777    3.4185 C   0  0  0  0  0  0  0  0  0  0  0  0
   -5.8684   -9.1881    4.5332 O   0  0  0  0  0  0  0  0  0  0  0  0
   -6.6840  -11.6200    3.1285 C   0  0  0  0  0  0  0  0  0  0  0  0
   -6.2696  -13.9007    4.0576 S   0  0  0  0  0  0  0  0  0  0  0  0
   -5.5836  -14.4635    6.2977 C   0  0  0  0  0  0  0  0  0  0  0  0
   -6.1451  -14.4581    7.7747 C   0  0  0  0  0  0  0  0  0  0  0  0
   -6.6475  -15.8659    8.7778 C   0  0  0  0  0  0  0  0  0  0  0  0
   -5.8567  -17.4578    8.3965 C   0  0  0  0  0  0  0  0  0  0  0  0
   -4.5522  -16.9081    7.6793 C   0  0  0  0  0  0  0  0  0  0  0  0
   -4.6836  -15.4854    6.6784 N   0  0  0  0  0  0  0  0  0  0  0  0
   -6.7249   -7.1469    1.5645 C   0  0  0  0  0  0  0  0  0  0  0  0
   -5.1727   -1.3510    1.0037 H   0  0  0  0  0  0  0  0  0  0  0  0
   -6.9003   -0.9792    0.9013 H   0  0  0  0  0  0  0  0  0  0  0  0
   -5.9475   -0.3821    2.2707 H   0  0  0  0  0  0  0  0  0  0  0  0
   -5.6050   -2.6660    3.1081 H   0  0  0  0  0  0  0  0  0  0  0  0
   -7.3289   -2.3383    2.9537 H   0  0  0  0  0  0  0  0  0  0  0  0
   -5.9395   -5.3746    3.6043 H   0  0  0  0  0  0  0  0  0  0  0  0
   -4.3816   -4.8788    2.9464 H   0  0  0  0  0  0  0  0  0  0  0  0
   -4.1003   -7.1690    2.9262 H   0  0  0  0  0  0  0  0  0  0  0  0
   -4.3319   -6.7864    1.2975 H   0  0  0  0  0  0  0  0  0  0  0  0
   -6.2053  -12.1610    2.3859 H   0  0  0  0  0  0  0  0  0  0  0  0
   -7.6711  -11.8132    2.6207 H   0  0  0  0  0  0  0  0  0  0  0  0
   -5.2765  -14.1369    8.4140 H   0  0  0  0  0  0  0  0  0  0  0  0
   -7.6617  -16.0770    8.5321 H   0  0  0  0  0  0  0  0  0  0  0  0
   -6.1796  -18.4538    8.6179 H   0  0  0  0  0  0  0  0  0  0  0  0
   -3.5804  -17.4051    7.6211 H   0  0  0  0  0  0  0  0  0  0  0  0
   -7.0994   -6.6204    2.4408 H   0  0  0  0  0  0  0  0  0  0  0  0
   -7.4504   -7.6954    0.9464 H   0  0  0  0  0  0  0  0  0  0  0  0
  1  2  1  0
  2  3  1  0
  3  4  2  0
  4  5  1  0
  5  6  2  0
  6  7  1  0
  7  8  1  0
  8  9  1  0
  9 10  1  0
 10 11  1  0
 11 12  2  0
 11 13  1  0
 13 14  1  0
 14 15  1  0
 15 16  2  0
 16 17  1  0
 17 18  2  0
 18 19  1  0
 19 20  2  0
 10 21  1  0
  7  3  1  0
 20 15  1  0
 21  6  1  0
  1 22  1  0
  1 23  1  0
  1 24  1  0
  2 25  1  0
  2 26  1  0
  8 27  1  0
  8 28  1  0
  9 29  1  0
  9 30  1  0
 13 31  1  0
 13 32  1  0
 16 33  1  0
 17 34  1  0
 18 35  1  0
 19 36  1  0
 21 37  1  0
 21 38  1  0
M  END
>  <Energy>  (981) 
949.81086794269595

>  <compound_id>  (981) 
34291

>  <target_id>  (981) 
1

>  <reference_id>  (981) 
65

>  <inspiration_ids>  (981) 
[65, 48]

>  <energy_score>  (981) 
905.9468168333838

>  <distance_score>  (981) 
9.961160334443216

>  <path>  (981) 
/opt/xchem-fragalysis-2/maxwin/BulkDock/SCRATCH/511025/C34291-P65/C34291-P65.minimised.mol

>  <scratch_subdir>  (981) 
/opt/xchem-fragalysis-2/maxwin/BulkDock/SCRATCH/511025/C34291-P65

>  <fragmenstein_runtime>  (981) 
9.524358034133911

>  <fragmenstein_outcome>  (981) 
too moved

>  <fragmenstein_mode>  (981) 
expansion

>  <fragmenstein_error>  (981) 


$$$$
C34291-P48
     RDKit          3D

 38 40  0  0  0  0  0  0  0  0999 V2000
   -7.1330    0.8400    3.3517 C   0  0  0  0  0  0  0  0  0  0  0  0
   -6.2938    0.0245    2.3810 C   0  0  0  0  0  0  0  0  0  0  0  0
   -5.5091   -1.0158    3.0813 C   0  0  0  0  0  0  0  0  0  0  0  0
   -4.3656   -0.8550    3.7189 N   0  0  0  0  0  0  0  0  0  0  0  0
   -4.0667   -2.0301    4.3709 N   0  0  0  0  0  0  0  0  0  0  0  0
   -5.0135   -2.8894    4.0768 C   0  0  0  0  0  0  0  0  0  0  0  0
   -5.8867   -2.3082    3.2249 N   0  0  0  0  0  0  0  0  0  0  0  0
   -7.1389   -2.9778    3.0816 C   0  0  0  0  0  0  0  0  0  0  0  0
   -7.2431   -3.7511    4.3922 C   0  0  0  0  0  0  0  0  0  0  0  0
   -6.6131   -5.1229    4.5328 N   0  0  0  0  0  0  0  0  0  0  0  0
   -6.7129   -6.3196    5.8007 C   0  0  0  0  0  0  0  0  0  0  0  0
   -7.2981   -6.0129    6.7916 O   0  0  0  0  0  0  0  0  0  0  0  0
   -5.9797   -8.2980    5.5055 C   0  0  0  0  0  0  0  0  0  0  0  0
   -5.5689   -9.7767    7.4356 S   0  0  0  0  0  0  0  0  0  0  0  0
   -3.9154  -11.4804    7.3338 C   0  0  0  0  0  0  0  0  0  0  0  0
   -3.7050  -12.2945    8.3810 C   0  0  0  0  0  0  0  0  0  0  0  0
   -4.1788  -13.7291    8.8237 C   0  0  0  0  0  0  0  0  0  0  0  0
   -5.2317  -14.3698    8.3963 C   0  0  0  0  0  0  0  0  0  0  0  0
   -5.0509  -14.0047    7.1800 C   0  0  0  0  0  0  0  0  0  0  0  0
   -4.2564  -12.6419    6.6765 N   0  0  0  0  0  0  0  0  0  0  0  0
   -5.3223   -4.2349    4.6950 C   0  0  0  0  0  0  0  0  0  0  0  0
   -7.6961    1.6088    2.8130 H   0  0  0  0  0  0  0  0  0  0  0  0
   -6.5036    1.3393    4.0964 H   0  0  0  0  0  0  0  0  0  0  0  0
   -7.8485    0.2077    3.8883 H   0  0  0  0  0  0  0  0  0  0  0  0
   -6.9417   -0.4243    1.6198 H   0  0  0  0  0  0  0  0  0  0  0  0
   -5.6064    0.6937    1.8506 H   0  0  0  0  0  0  0  0  0  0  0  0
   -7.1039   -3.6255    2.2014 H   0  0  0  0  0  0  0  0  0  0  0  0
   -7.9404   -2.2410    2.9865 H   0  0  0  0  0  0  0  0  0  0  0  0
   -8.3130   -4.0077    4.4362 H   0  0  0  0  0  0  0  0  0  0  0  0
   -7.1790   -3.1520    5.3227 H   0  0  0  0  0  0  0  0  0  0  0  0
   -4.9595   -8.4597    5.0551 H   0  0  0  0  0  0  0  0  0  0  0  0
   -6.2041   -8.8537    4.6268 H   0  0  0  0  0  0  0  0  0  0  0  0
   -2.9598  -11.8369    9.0182 H   0  0  0  0  0  0  0  0  0  0  0  0
   -3.5286  -14.2685    9.5353 H   0  0  0  0  0  0  0  0  0  0  0  0
   -5.8523  -15.1036    8.8122 H   0  0  0  0  0  0  0  0  0  0  0  0
   -5.3978  -14.6368    6.3884 H   0  0  0  0  0  0  0  0  0  0  0  0
   -5.1934   -4.0527    5.7732 H   0  0  0  0  0  0  0  0  0  0  0  0
   -4.5865   -4.8499    4.1852 H   0  0  0  0  0  0  0  0  0  0  0  0
  1  2  1  0
  2  3  1  0
  3  4  2  0
  4  5  1  0
  5  6  2  0
  6  7  1  0
  7  8  1  0
  8  9  1  0
  9 10  1  0
 10 11  1  0
 11 12  2  0
 11 13  1  0
 13 14  1  0
 14 15  1  0
 15 16  2  0
 16 17  1  0
 17 18  2  0
 18 19  1  0
 19 20  2  0
 10 21  1  0
  7  3  1  0
 20 15  1  0
 21  6  1  0
  1 22  1  0
  1 23  1  0
  1 24  1  0
  2 25  1  0
  2 26  1  0
  8 27  1  0
  8 28  1  0
  9 29  1  0
  9 30  1  0
 13 31  1  0
 13 32  1  0
 16 33  1  0
 17 34  1  0
 18 35  1  0
 19 36  1  0
 21 37  1  0
 21 38  1  0
M  END
>  <Energy>  (982) 
558.15200734676375

>  <compound_id>  (982) 
34291

>  <target_id>  (982) 
1

>  <reference_id>  (982) 
48

>  <inspiration_ids>  (982) 
[65, 48]

>  <energy_score>  (982) 
514.2879562374491

>  <distance_score>  (982) 
10.540587651124424

>  <path>  (982) 
/opt/xchem-fragalysis-2/maxwin/BulkDock/SCRATCH/511025/C34291-P48/C34291-P48.minimised.mol

>  <scratch_subdir>  (982) 
/opt/xchem-fragalysis-2/maxwin/BulkDock/SCRATCH/511025/C34291-P48

>  <fragmenstein_runtime>  (982) 
9.063135147094727

>  <fragmenstein_outcome>  (982) 
too moved

>  <fragmenstein_mode>  (982) 
expansion

>  <fragmenstein_error>  (982) 


$$$$
C34292-P65
     RDKit          3D

 42 44  0  0  0  0  0  0  0  0999 V2000
   -6.0352   -1.7111    4.7762 C   0  0  0  0  0  0  0  0  0  0  0  0
   -7.4259   -1.2744    5.2385 C   0  0  0  0  0  0  0  0  0  0  0  0
   -7.9908   -0.2230    4.2791 C   0  0  0  0  0  0  0  0  0  0  0  0
   -7.2959   -0.6695    6.5273 O   0  0  0  0  0  0  0  0  0  0  0  0
   -8.3441   -2.4479    5.3660 C   0  0  0  0  0  0  0  0  0  0  0  0
   -9.2398   -2.8626    4.4941 N   0  0  0  0  0  0  0  0  0  0  0  0
   -9.7926   -4.0426    4.9652 N   0  0  0  0  0  0  0  0  0  0  0  0
   -9.2008   -4.3519    6.0931 C   0  0  0  0  0  0  0  0  0  0  0  0
   -8.3680   -3.3298    6.3906 N   0  0  0  0  0  0  0  0  0  0  0  0
   -7.6202   -3.4443    7.5819 C   0  0  0  0  0  0  0  0  0  0  0  0
   -8.1501   -4.7359    8.2420 C   0  0  0  0  0  0  0  0  0  0  0  0
   -7.5982   -6.0553    7.5276 N   0  0  0  0  0  0  0  0  0  0  0  0
   -7.0166   -7.8078    8.2876 C   0  0  0  0  0  0  0  0  0  0  0  0
   -7.1965   -7.9430    9.4677 O   0  0  0  0  0  0  0  0  0  0  0  0
   -5.9347   -9.4714    7.5565 C   0  0  0  0  0  0  0  0  0  0  0  0
   -4.2361  -11.4045    7.7898 S   0  0  0  0  0  0  0  0  0  0  0  0
   -4.9692  -13.6287    8.1508 C   0  0  0  0  0  0  0  0  0  0  0  0
   -4.9826  -14.7254    7.3530 C   0  0  0  0  0  0  0  0  0  0  0  0
   -4.6082  -16.4825    7.7800 C   0  0  0  0  0  0  0  0  0  0  0  0
   -5.9578  -17.3395    8.5026 C   0  0  0  0  0  0  0  0  0  0  0  0
   -6.6421  -15.8949    8.9064 C   0  0  0  0  0  0  0  0  0  0  0  0
   -5.9639  -14.3028    8.9385 N   0  0  0  0  0  0  0  0  0  0  0  0
   -9.1279   -5.6837    6.8744 C   0  0  0  0  0  0  0  0  0  0  0  0
   -5.3589   -0.8508    4.7116 H   0  0  0  0  0  0  0  0  0  0  0  0
   -5.5746   -2.4078    5.4854 H   0  0  0  0  0  0  0  0  0  0  0  0
   -6.0686   -2.2002    3.7964 H   0  0  0  0  0  0  0  0  0  0  0  0
   -8.0825   -0.6095    3.2581 H   0  0  0  0  0  0  0  0  0  0  0  0
   -8.9823    0.1156    4.6034 H   0  0  0  0  0  0  0  0  0  0  0  0
   -7.3515    0.6671    4.2564 H   0  0  0  0  0  0  0  0  0  0  0  0
   -8.1729   -0.3187    6.7679 H   0  0  0  0  0  0  0  0  0  0  0  0
   -6.5611   -3.5117    7.3193 H   0  0  0  0  0  0  0  0  0  0  0  0
   -7.8295   -2.5679    8.2008 H   0  0  0  0  0  0  0  0  0  0  0  0
   -9.0911   -4.5880    8.7824 H   0  0  0  0  0  0  0  0  0  0  0  0
   -7.4923   -4.8141    9.1089 H   0  0  0  0  0  0  0  0  0  0  0  0
   -6.7307  -10.1018    7.8153 H   0  0  0  0  0  0  0  0  0  0  0  0
   -5.4476   -9.1910    8.4790 H   0  0  0  0  0  0  0  0  0  0  0  0
   -5.2295  -14.5791    6.2993 H   0  0  0  0  0  0  0  0  0  0  0  0
   -3.5842  -16.8646    7.9052 H   0  0  0  0  0  0  0  0  0  0  0  0
   -5.9078  -18.1930    9.1870 H   0  0  0  0  0  0  0  0  0  0  0  0
   -7.5974  -15.8155    8.4797 H   0  0  0  0  0  0  0  0  0  0  0  0
   -9.6189   -6.3769    6.1939 H   0  0  0  0  0  0  0  0  0  0  0  0
   -9.6787   -5.9185    7.6911 H   0  0  0  0  0  0  0  0  0  0  0  0
  1  2  1  0
  2  3  1  0
  2  4  1  0
  2  5  1  0
  5  6  2  0
  6  7  1  0
  7  8  2  0
  8  9  1  0
  9 10  1  0
 10 11  1  0
 11 12  1  0
 12 13  1  0
 13 14  2  0
 13 15  1  0
 15 16  1  0
 16 17  1  0
 17 18  2  0
 18 19  1  0
 19 20  2  0
 20 21  1  0
 21 22  2  0
 12 23  1  0
  9  5  1  0
 22 17  1  0
 23  8  1  0
  1 24  1  0
  1 25  1  0
  1 26  1  0
  3 27  1  0
  3 28  1  0
  3 29  1  0
  4 30  1  0
 10 31  1  0
 10 32  1  0
 11 33  1  0
 11 34  1  0
 15 35  1  0
 15 36  1  0
 18 37  1  0
 19 38  1  0
 20 39  1  0
 21 40  1  0
 23 41  1  0
 23 42  1  0
M  END
>  <Energy>  (983) 
1033.5234537239539

>  <compound_id>  (983) 
34292

>  <target_id>  (983) 
1

>  <reference_id>  (983) 
65

>  <inspiration_ids>  (983) 
[65, 48]

>  <energy_score>  (983) 
973.9689833929232

>  <distance_score>  (983) 
8.665605374073715

>  <path>  (983) 
/opt/xchem-fragalysis-2/maxwin/BulkDock/SCRATCH/511025/C34292-P65/C34292-P65.minimised.mol

>  <scratch_subdir>  (983) 
/opt/xchem-fragalysis-2/maxwin/BulkDock/SCRATCH/511025/C34292-P65

>  <fragmenstein_runtime>  (983) 
19.904762029647827

>  <fragmenstein_outcome>  (983) 
too moved

>  <fragmenstein_mode>  (983) 
expansion

>  <fragmenstein_error>  (983) 


$$$$
C34292-P48
     RDKit          3D

 42 44  0  0  0  0  0  0  0  0999 V2000
   -7.9736   -5.4218    7.0981 C   0  0  0  0  0  0  0  0  0  0  0  0
   -7.1911   -4.9766    8.3573 C   0  0  0  0  0  0  0  0  0  0  0  0
   -6.3027   -3.9066    7.4082 C   0  0  0  0  0  0  0  0  0  0  0  0
   -8.3261   -4.3624    8.9314 O   0  0  0  0  0  0  0  0  0  0  0  0
   -6.4711   -6.2345    9.6547 C   0  0  0  0  0  0  0  0  0  0  0  0
   -6.6697   -7.6101    9.4832 N   0  0  0  0  0  0  0  0  0  0  0  0
   -5.7278   -8.3834   10.1376 N   0  0  0  0  0  0  0  0  0  0  0  0
   -5.2010   -7.8017   11.1625 C   0  0  0  0  0  0  0  0  0  0  0  0
   -5.5120   -6.4465   11.0784 N   0  0  0  0  0  0  0  0  0  0  0  0
   -5.7673   -6.0692   12.5013 C   0  0  0  0  0  0  0  0  0  0  0  0
   -5.2456   -7.0281   13.6295 C   0  0  0  0  0  0  0  0  0  0  0  0
   -5.4517   -8.4927   13.7214 N   0  0  0  0  0  0  0  0  0  0  0  0
   -4.9318   -9.4691   14.6783 C   0  0  0  0  0  0  0  0  0  0  0  0
   -4.1327   -9.3358   15.5770 O   0  0  0  0  0  0  0  0  0  0  0  0
   -5.5946  -10.8959   14.6027 C   0  0  0  0  0  0  0  0  0  0  0  0
   -4.4836  -12.2975   14.2143 S   0  0  0  0  0  0  0  0  0  0  0  0
   -5.4129  -13.8450   14.5412 C   0  0  0  0  0  0  0  0  0  0  0  0
   -6.6795  -13.9216   15.1159 C   0  0  0  0  0  0  0  0  0  0  0  0
   -7.2386  -15.1806   15.4170 C   0  0  0  0  0  0  0  0  0  0  0  0
   -6.5410  -16.3430   15.1163 C   0  0  0  0  0  0  0  0  0  0  0  0
   -5.3046  -16.1917   14.5209 C   0  0  0  0  0  0  0  0  0  0  0  0
   -4.7318  -14.9881   14.2490 N   0  0  0  0  0  0  0  0  0  0  0  0
   -4.5583   -8.4649   12.4275 C   0  0  0  0  0  0  0  0  0  0  0  0
   -7.2974   -5.8978    6.3968 H   0  0  0  0  0  0  0  0  0  0  0  0
   -8.3690   -4.5534    6.5376 H   0  0  0  0  0  0  0  0  0  0  0  0
   -8.9088   -5.9380    7.2755 H   0  0  0  0  0  0  0  0  0  0  0  0
   -6.2143   -4.2241    6.3592 H   0  0  0  0  0  0  0  0  0  0  0  0
   -6.8222   -2.9373    7.3799 H   0  0  0  0  0  0  0  0  0  0  0  0
   -5.2600   -3.7104    7.6402 H   0  0  0  0  0  0  0  0  0  0  0  0
   -8.7231   -3.6728    8.3711 H   0  0  0  0  0  0  0  0  0  0  0  0
   -5.2518   -5.1788   12.7265 H   0  0  0  0  0  0  0  0  0  0  0  0
   -6.7861   -5.8022   12.7253 H   0  0  0  0  0  0  0  0  0  0  0  0
   -4.2474   -6.7612   14.0121 H   0  0  0  0  0  0  0  0  0  0  0  0
   -5.8338   -6.6975   14.5034 H   0  0  0  0  0  0  0  0  0  0  0  0
   -6.4973  -10.8856   14.0130 H   0  0  0  0  0  0  0  0  0  0  0  0
   -5.9524  -11.0680   15.6271 H   0  0  0  0  0  0  0  0  0  0  0  0
   -7.2432  -13.0287   15.3549 H   0  0  0  0  0  0  0  0  0  0  0  0
   -8.2254  -15.2378   15.8687 H   0  0  0  0  0  0  0  0  0  0  0  0
   -6.9542  -17.3237   15.3161 H   0  0  0  0  0  0  0  0  0  0  0  0
   -4.7079  -17.0531   14.2371 H   0  0  0  0  0  0  0  0  0  0  0  0
   -4.2834   -9.4912   12.1825 H   0  0  0  0  0  0  0  0  0  0  0  0
   -3.5430   -8.1284   12.6751 H   0  0  0  0  0  0  0  0  0  0  0  0
  1  2  1  0
  2  3  1  0
  2  4  1  0
  2  5  1  0
  5  6  2  0
  6  7  1  0
  7  8  2  0
  8  9  1  0
  9 10  1  0
 10 11  1  0
 11 12  1  0
 12 13  1  0
 13 14  2  0
 13 15  1  0
 15 16  1  0
 16 17  1  0
 17 18  2  0
 18 19  1  0
 19 20  2  0
 20 21  1  0
 21 22  2  0
 12 23  1  0
  9  5  1  0
 22 17  1  0
 23  8  1  0
  1 24  1  0
  1 25  1  0
  1 26  1  0
  3 27  1  0
  3 28  1  0
  3 29  1  0
  4 30  1  0
 10 31  1  0
 10 32  1  0
 11 33  1  0
 11 34  1  0
 15 35  1  0
 15 36  1  0
 18 37  1  0
 19 38  1  0
 20 39  1  0
 21 40  1  0
 23 41  1  0
 23 42  1  0
M  END
>  <Energy>  (984) 
308.37302508485539

>  <compound_id>  (984) 
34292

>  <target_id>  (984) 
1

>  <reference_id