C157-P197
     RDKit          3D

 45 47  0  0  0  0  0  0  0  0999 V2000
    2.9575   -3.6147   35.0457 C   0  0  0  0  0  0  0  0  0  0  0  0
    2.1172   -3.7038   36.2946 C   0  0  0  0  0  0  0  0  0  0  0  0
    2.4560   -2.9060   37.3957 C   0  0  0  0  0  0  0  0  0  0  0  0
    1.6916   -2.9578   38.5581 C   0  0  0  0  0  0  0  0  0  0  0  0
    0.5912   -3.8042   38.6210 C   0  0  0  0  0  0  0  0  0  0  0  0
   -0.1417   -3.8342   39.7405 F   0  0  0  0  0  0  0  0  0  0  0  0
    0.2352   -4.6119   37.5491 C   0  0  0  0  0  0  0  0  0  0  0  0
    0.9948   -4.5594   36.3856 C   0  0  0  0  0  0  0  0  0  0  0  0
    0.6741   -5.3188   35.2683 N   0  0  0  0  0  0  0  0  0  0  0  0
   -0.4878   -6.3091   35.0272 C   0  0  0  0  0  0  0  0  0  0  0  0
   -1.3114   -6.6994   35.7544 O   0  0  0  0  0  0  0  0  0  0  0  0
   -0.4164   -6.7035   33.5831 C   0  0  0  0  0  0  0  0  0  0  0  0
   -1.1531   -7.7280   33.0688 C   0  0  0  0  0  0  0  0  0  0  0  0
   -0.8785   -7.9801   31.7560 C   0  0  0  0  0  0  0  0  0  0  0  0
   -1.3964   -9.0716   31.1480 O   0  0  0  0  0  0  0  0  0  0  0  0
   -0.0318   -7.2965   30.9752 N   0  0  0  0  0  0  0  0  0  0  0  0
    0.5923   -6.2761   31.5656 C   0  0  0  0  0  0  0  0  0  0  0  0
    1.3848   -5.3182   30.7285 C   0  0  0  0  0  0  0  0  0  0  0  0
    0.5316   -4.0853   30.4538 C   0  0  0  0  0  0  0  0  0  0  0  0
    0.2983   -3.2980   31.6965 N   0  0  0  0  0  0  0  0  0  0  0  0
   -1.1500   -2.4042   31.7389 S   0  0  0  0  0  0  0  0  0  0  0  0
   -1.1216   -1.5882   32.9293 O   0  0  0  0  0  0  0  0  0  0  0  0
   -2.2235   -3.3433   31.4778 O   0  0  0  0  0  0  0  0  0  0  0  0
   -1.1271   -1.3054   30.3839 C   0  0  0  0  0  0  0  0  0  0  0  0
   -1.4646   -1.7040   29.1062 C   0  0  0  0  0  0  0  0  0  0  0  0
   -1.1881   -0.4317   28.0077 S   0  0  0  0  0  0  0  0  0  0  0  0
   -0.6726    0.5623   29.3020 C   0  0  0  0  0  0  0  0  0  0  0  0
   -0.6559    0.0038   30.4920 N   0  0  0  0  0  0  0  0  0  0  0  0
    0.4711   -5.9680   32.8593 N   0  0  0  0  0  0  0  0  0  0  0  0
    3.3492   -4.6008   34.7757 H   0  0  0  0  0  0  0  0  0  0  0  0
    3.8183   -2.9525   35.1888 H   0  0  0  0  0  0  0  0  0  0  0  0
    2.3655   -3.2116   34.2178 H   0  0  0  0  0  0  0  0  0  0  0  0
    3.3105   -2.2345   37.3554 H   0  0  0  0  0  0  0  0  0  0  0  0
    1.9399   -2.3399   39.4153 H   0  0  0  0  0  0  0  0  0  0  0  0
   -0.6358   -5.2507   37.6438 H   0  0  0  0  0  0  0  0  0  0  0  0
    1.1531   -5.1392   34.3929 H   0  0  0  0  0  0  0  0  0  0  0  0
   -1.8292   -8.3259   33.6592 H   0  0  0  0  0  0  0  0  0  0  0  0
   -0.6789   -9.3093   30.5251 H   0  0  0  0  0  0  0  0  0  0  0  0
    2.3093   -5.0486   31.2519 H   0  0  0  0  0  0  0  0  0  0  0  0
    1.6641   -5.7964   29.7833 H   0  0  0  0  0  0  0  0  0  0  0  0
    1.0510   -3.4370   29.7397 H   0  0  0  0  0  0  0  0  0  0  0  0
   -0.4155   -4.3977   30.0020 H   0  0  0  0  0  0  0  0  0  0  0  0
    0.2974   -3.8639   32.5506 H   0  0  0  0  0  0  0  0  0  0  0  0
   -1.8378   -2.6604   28.7708 H   0  0  0  0  0  0  0  0  0  0  0  0
   -0.3684    1.5877   29.1367 H   0  0  0  0  0  0  0  0  0  0  0  0
  1  2  1  0
  2  3  2  0
  3  4  1  0
  4  5  2  0
  5  6  1  0
  5  7  1  0
  7  8  2  0
  8  9  1  0
  9 10  1  0
 10 11  2  0
 10 12  1  0
 12 13  2  0
 13 14  1  0
 14 15  1  0
 14 16  2  0
 16 17  1  0
 17 18  1  0
 18 19  1  0
 19 20  1  0
 20 21  1  0
 21 22  2  0
 21 23  2  0
 21 24  1  0
 24 25  2  0
 25 26  1  0
 26 27  1  0
 27 28  2  0
 17 29  2  0
  8  2  1  0
 29 12  1  0
 28 24  1  0
  1 30  1  0
  1 31  1  0
  1 32  1  0
  3 33  1  0
  4 34  1  0
  7 35  1  0
  9 36  1  0
 13 37  1  0
 15 38  1  0
 18 39  1  0
 18 40  1  0
 19 41  1  0
 19 42  1  0
 20 43  1  0
 25 44  1  0
 27 45  1  0
M  END
>  <Energy>  (1) 
-15.775735996283563

>  <compound_id>  (1) 
157

>  <target_id>  (1) 
1

>  <reference_id>  (1) 
197

>  <inspiration_ids>  (1) 
[197, 56]

>  <energy_score>  (1) 
-104.23120600977234

>  <distance_score>  (1) 
0.6630401269734654

>  <path>  (1) 
/opt/xchem-fragalysis-2/maxwin/BulkDock/SCRATCH/505737/C157-P197/C157-P197.minimised.mol

>  <scratch_subdir>  (1) 
/opt/xchem-fragalysis-2/maxwin/BulkDock/SCRATCH/505737/C157-P197

>  <fragmenstein_runtime>  (1) 
5.596083402633667

>  <fragmenstein_outcome>  (1) 
acceptable

>  <fragmenstein_mode>  (1) 
expansion

>  <fragmenstein_error>  (1) 


$$$$
C157-P56
     RDKit          3D

 45 47  0  0  0  0  0  0  0  0999 V2000
    2.8092   -3.5718   35.0231 C   0  0  0  0  0  0  0  0  0  0  0  0
    2.0022   -3.5616   36.2962 C   0  0  0  0  0  0  0  0  0  0  0  0
    2.4069   -2.7335   37.3518 C   0  0  0  0  0  0  0  0  0  0  0  0
    1.7052   -2.7368   38.5551 C   0  0  0  0  0  0  0  0  0  0  0  0
    0.5968   -3.5612   38.7014 C   0  0  0  0  0  0  0  0  0  0  0  0
   -0.0718   -3.5615   39.8612 F   0  0  0  0  0  0  0  0  0  0  0  0
    0.1658   -4.3826   37.6715 C   0  0  0  0  0  0  0  0  0  0  0  0
    0.8704   -4.3858   36.4729 C   0  0  0  0  0  0  0  0  0  0  0  0
    0.4716   -5.1814   35.4109 N   0  0  0  0  0  0  0  0  0  0  0  0
   -0.6324   -6.2549   35.3223 C   0  0  0  0  0  0  0  0  0  0  0  0
   -1.3284   -6.6935   36.1485 O   0  0  0  0  0  0  0  0  0  0  0  0
   -0.6943   -6.6987   33.8982 C   0  0  0  0  0  0  0  0  0  0  0  0
   -1.4260   -7.7863   33.5203 C   0  0  0  0  0  0  0  0  0  0  0  0
   -1.3012   -8.0687   32.1936 C   0  0  0  0  0  0  0  0  0  0  0  0
   -1.8542   -9.2041   31.7007 O   0  0  0  0  0  0  0  0  0  0  0  0
   -0.5815   -7.3831   31.2960 N   0  0  0  0  0  0  0  0  0  0  0  0
    0.1090   -6.3433   31.7825 C   0  0  0  0  0  0  0  0  0  0  0  0
    0.9494   -5.5000   30.8712 C   0  0  0  0  0  0  0  0  0  0  0  0
    0.2754   -4.1713   30.5550 C   0  0  0  0  0  0  0  0  0  0  0  0
    0.1130   -3.3185   31.7585 N   0  0  0  0  0  0  0  0  0  0  0  0
   -1.2373   -2.2915   31.7652 S   0  0  0  0  0  0  0  0  0  0  0  0
   -1.1835   -1.4956   32.9683 O   0  0  0  0  0  0  0  0  0  0  0  0
   -2.3957   -3.1042   31.4442 O   0  0  0  0  0  0  0  0  0  0  0  0
   -1.0865   -1.1594   30.4373 C   0  0  0  0  0  0  0  0  0  0  0  0
   -1.5027   -1.4444   29.1505 C   0  0  0  0  0  0  0  0  0  0  0  0
   -1.1890   -0.1079   28.1244 S   0  0  0  0  0  0  0  0  0  0  0  0
   -0.4961    0.7285   29.4486 C   0  0  0  0  0  0  0  0  0  0  0  0
   -0.4907    0.0926   30.5983 N   0  0  0  0  0  0  0  0  0  0  0  0
    0.0721   -5.9560   33.0589 N   0  0  0  0  0  0  0  0  0  0  0  0
    3.6766   -2.9069   35.0935 H   0  0  0  0  0  0  0  0  0  0  0  0
    2.1982   -3.2267   34.1830 H   0  0  0  0  0  0  0  0  0  0  0  0
    3.1859   -4.5792   34.8178 H   0  0  0  0  0  0  0  0  0  0  0  0
    3.2830   -2.0984   37.2509 H   0  0  0  0  0  0  0  0  0  0  0  0
    2.0189   -2.1084   39.3814 H   0  0  0  0  0  0  0  0  0  0  0  0
   -0.7108   -4.9992   37.8289 H   0  0  0  0  0  0  0  0  0  0  0  0
    0.9376   -5.0990   34.5118 H   0  0  0  0  0  0  0  0  0  0  0  0
   -1.9980   -8.3927   34.2057 H   0  0  0  0  0  0  0  0  0  0  0  0
   -1.2052   -9.4550   31.0145 H   0  0  0  0  0  0  0  0  0  0  0  0
    1.9337   -5.3404   31.3260 H   0  0  0  0  0  0  0  0  0  0  0  0
    1.0946   -6.0367   29.9357 H   0  0  0  0  0  0  0  0  0  0  0  0
    0.8857   -3.6173   29.8329 H   0  0  0  0  0  0  0  0  0  0  0  0
   -0.6894   -4.3689   30.0827 H   0  0  0  0  0  0  0  0  0  0  0  0
    0.0764   -3.8508   32.6362 H   0  0  0  0  0  0  0  0  0  0  0  0
   -1.9771   -2.3389   28.7740 H   0  0  0  0  0  0  0  0  0  0  0  0
   -0.0889    1.7256   29.3355 H   0  0  0  0  0  0  0  0  0  0  0  0
  1  2  1  0
  2  3  2  0
  3  4  1  0
  4  5  2  0
  5  6  1  0
  5  7  1  0
  7  8  2  0
  8  9  1  0
  9 10  1  0
 10 11  2  0
 10 12  1  0
 12 13  2  0
 13 14  1  0
 14 15  1  0
 14 16  2  0
 16 17  1  0
 17 18  1  0
 18 19  1  0
 19 20  1  0
 20 21  1  0
 21 22  2  0
 21 23  2  0
 21 24  1  0
 24 25  2  0
 25 26  1  0
 26 27  1  0
 27 28  2  0
 17 29  2  0
  8  2  1  0
 29 12  1  0
 28 24  1  0
  1 30  1  0
  1 31  1  0
  1 32  1  0
  3 33  1  0
  4 34  1  0
  7 35  1  0
  9 36  1  0
 13 37  1  0
 15 38  1  0
 18 39  1  0
 18 40  1  0
 19 41  1  0
 19 42  1  0
 20 43  1  0
 25 44  1  0
 27 45  1  0
M  END
>  <Energy>  (2) 
-17.181418048246165

>  <compound_id>  (2) 
157

>  <target_id>  (2) 
1

>  <reference_id>  (2) 
56

>  <inspiration_ids>  (2) 
[197, 56]

>  <energy_score>  (2) 
-105.6368880617345

>  <distance_score>  (2) 
0.64183334178922

>  <path>  (2) 
/opt/xchem-fragalysis-2/maxwin/BulkDock/SCRATCH/505737/C157-P56/C157-P56.minimised.mol

>  <scratch_subdir>  (2) 
/opt/xchem-fragalysis-2/maxwin/BulkDock/SCRATCH/505737/C157-P56

>  <fragmenstein_runtime>  (2) 
4.232982158660889

>  <fragmenstein_outcome>  (2) 
acceptable

>  <fragmenstein_mode>  (2) 
expansion

>  <fragmenstein_error>  (2) 


$$$$
C158-P197
     RDKit          3D

 60 62  0  0  0  0  0  0  0  0999 V2000
    6.5511    3.5791   28.0982 C   0  0  0  0  0  0  0  0  0  0  0  0
    6.3411    5.0685   27.9322 C   0  0  0  0  0  0  0  0  0  0  0  0
    5.0316    5.3781   27.2292 C   0  0  0  0  0  0  0  0  0  0  0  0
    4.9674    6.0131   26.2510 O   0  0  0  0  0  0  0  0  0  0  0  0
    3.9097    4.7268   28.0800 N   0  0  0  0  0  0  0  0  0  0  0  0
    2.5293    4.8004   27.9592 C   0  0  0  0  0  0  0  0  0  0  0  0
    1.7841    4.0979   28.9102 C   0  0  0  0  0  0  0  0  0  0  0  0
    0.3871    4.1147   28.8653 C   0  0  0  0  0  0  0  0  0  0  0  0
   -0.2817    2.7636   29.0372 C   0  0  0  0  0  0  0  0  0  0  0  0
    0.1300    1.8961   30.1178 N   0  0  0  0  0  0  0  0  0  0  0  0
   -0.3651    0.6242   30.0849 C   0  0  0  0  0  0  0  0  0  0  0  0
   -0.5328   -0.0728   31.1779 N   0  0  0  0  0  0  0  0  0  0  0  0
   -1.0816   -1.3188   30.8799 C   0  0  0  0  0  0  0  0  0  0  0  0
   -1.2540   -2.5356   32.1100 S   0  0  0  0  0  0  0  0  0  0  0  0
   -1.4363   -1.8131   33.3463 O   0  0  0  0  0  0  0  0  0  0  0  0
   -2.2455   -3.4678   31.6104 O   0  0  0  0  0  0  0  0  0  0  0  0
    0.2272   -3.3480   32.1882 N   0  0  0  0  0  0  0  0  0  0  0  0
    0.6629   -4.0363   30.9461 C   0  0  0  0  0  0  0  0  0  0  0  0
    1.5578   -5.2240   31.2732 C   0  0  0  0  0  0  0  0  0  0  0  0
    0.7304   -6.2444   31.9960 C   0  0  0  0  0  0  0  0  0  0  0  0
    0.5590   -6.0563   33.3211 N   0  0  0  0  0  0  0  0  0  0  0  0
   -0.3676   -6.8155   33.9401 C   0  0  0  0  0  0  0  0  0  0  0  0
   -0.5395   -6.6302   35.4170 C   0  0  0  0  0  0  0  0  0  0  0  0
   -1.1268   -7.7316   33.2519 C   0  0  0  0  0  0  0  0  0  0  0  0
   -0.8238   -7.8662   31.9247 C   0  0  0  0  0  0  0  0  0  0  0  0
   -1.3818   -8.8516   31.1820 O   0  0  0  0  0  0  0  0  0  0  0  0
    0.0900   -7.1609   31.2595 N   0  0  0  0  0  0  0  0  0  0  0  0
   -1.3365   -1.5620   29.5486 C   0  0  0  0  0  0  0  0  0  0  0  0
   -0.8375   -0.2207   28.6339 S   0  0  0  0  0  0  0  0  0  0  0  0
   -0.2354    5.1395   28.1145 C   0  0  0  0  0  0  0  0  0  0  0  0
   -1.7212    5.3907   28.0129 C   0  0  0  0  0  0  0  0  0  0  0  0
    0.5182    5.7794   27.1198 C   0  0  0  0  0  0  0  0  0  0  0  0
    1.8561    5.4842   26.9558 C   0  0  0  0  0  0  0  0  0  0  0  0
    2.3780    5.8477   25.7534 O   0  0  0  0  0  0  0  0  0  0  0  0
    5.9482    3.1533   28.9054 H   0  0  0  0  0  0  0  0  0  0  0  0
    6.3152    3.0364   27.1766 H   0  0  0  0  0  0  0  0  0  0  0  0
    7.5982    3.3781   28.3488 H   0  0  0  0  0  0  0  0  0  0  0  0
    6.3633    5.5816   28.8993 H   0  0  0  0  0  0  0  0  0  0  0  0
    7.1520    5.4826   27.3215 H   0  0  0  0  0  0  0  0  0  0  0  0
    4.3118    4.3158   28.9118 H   0  0  0  0  0  0  0  0  0  0  0  0
    2.2868    3.3795   29.5560 H   0  0  0  0  0  0  0  0  0  0  0  0
   -1.3643    2.8214   28.9257 H   0  0  0  0  0  0  0  0  0  0  0  0
    0.0707    2.2299   28.1656 H   0  0  0  0  0  0  0  0  0  0  0  0
    0.1441    2.3256   31.0356 H   0  0  0  0  0  0  0  0  0  0  0  0
    0.2109   -3.9521   33.0207 H   0  0  0  0  0  0  0  0  0  0  0  0
   -0.1990   -4.3773   30.3618 H   0  0  0  0  0  0  0  0  0  0  0  0
    1.2202   -3.3164   30.3371 H   0  0  0  0  0  0  0  0  0  0  0  0
    1.9598   -5.6546   30.3500 H   0  0  0  0  0  0  0  0  0  0  0  0
    2.4054   -4.9213   31.8985 H   0  0  0  0  0  0  0  0  0  0  0  0
    0.2199   -5.9494   35.8146 H   0  0  0  0  0  0  0  0  0  0  0  0
   -1.5234   -6.2059   35.6313 H   0  0  0  0  0  0  0  0  0  0  0  0
   -0.4392   -7.5893   35.9349 H   0  0  0  0  0  0  0  0  0  0  0  0
   -1.8670   -8.3532   33.7309 H   0  0  0  0  0  0  0  0  0  0  0  0
   -0.6834   -8.9649   30.5060 H   0  0  0  0  0  0  0  0  0  0  0  0
   -1.7417   -2.4507   29.0820 H   0  0  0  0  0  0  0  0  0  0  0  0
   -2.3397    4.5834   28.4002 H   0  0  0  0  0  0  0  0  0  0  0  0
   -1.9412    6.3368   28.5161 H   0  0  0  0  0  0  0  0  0  0  0  0
   -1.9930    5.5319   26.9624 H   0  0  0  0  0  0  0  0  0  0  0  0
    0.0365    6.4273   26.3876 H   0  0  0  0  0  0  0  0  0  0  0  0
    3.3547    5.8570   25.8079 H   0  0  0  0  0  0  0  0  0  0  0  0
  1  2  1  0
  2  3  1  0
  3  4  2  0
  3  5  1  0
  5  6  1  0
  6  7  2  0
  7  8  1  0
  8  9  1  0
  9 10  1  0
 10 11  1  0
 11 12  2  0
 12 13  1  0
 13 14  1  0
 14 15  2  0
 14 16  2  0
 14 17  1  0
 17 18  1  0
 18 19  1  0
 19 20  1  0
 20 21  2  0
 21 22  1  0
 22 23  1  0
 22 24  2  0
 24 25  1  0
 25 26  1  0
 25 27  2  0
 13 28  2  0
 28 29  1  0
  8 30  2  0
 30 31  1  0
 30 32  1  0
 32 33  2  0
 33 34  1  0
 33  6  1  0
 29 11  1  0
 27 20  1  0
  1 35  1  0
  1 36  1  0
  1 37  1  0
  2 38  1  0
  2 39  1  0
  5 40  1  0
  7 41  1  0
  9 42  1  0
  9 43  1  0
 10 44  1  0
 17 45  1  0
 18 46  1  0
 18 47  1  0
 19 48  1  0
 19 49  1  0
 23 50  1  0
 23 51  1  0
 23 52  1  0
 24 53  1  0
 26 54  1  0
 28 55  1  0
 31 56  1  0
 31 57  1  0
 31 58  1  0
 32 59  1  0
 34 60  1  0
M  END
>  <Energy>  (3) 
-41.773243569061648

>  <compound_id>  (3) 
158

>  <target_id>  (3) 
1

>  <reference_id>  (3) 
197

>  <inspiration_ids>  (3) 
[197, 57]

>  <energy_score>  (3) 
-89.31278474225249

>  <distance_score>  (3) 
1.8120996090364028

>  <path>  (3) 
/opt/xchem-fragalysis-2/maxwin/BulkDock/SCRATCH/505737/C158-P197/C158-P197.minimised.mol

>  <scratch_subdir>  (3) 
/opt/xchem-fragalysis-2/maxwin/BulkDock/SCRATCH/505737/C158-P197

>  <fragmenstein_runtime>  (3) 
9.690560340881348

>  <fragmenstein_outcome>  (3) 
too moved

>  <fragmenstein_mode>  (3) 
expansion

>  <fragmenstein_error>  (3) 


$$$$
C158-P57
     RDKit          3D

 60 62  0  0  0  0  0  0  0  0999 V2000
    4.9186    5.3254   27.9334 C   0  0  0  0  0  0  0  0  0  0  0  0
    5.0382    4.5448   26.6338 C   0  0  0  0  0  0  0  0  0  0  0  0
    3.7931    4.5978   25.7452 C   0  0  0  0  0  0  0  0  0  0  0  0
    3.8192    4.9590   24.6356 O   0  0  0  0  0  0  0  0  0  0  0  0
    2.6170    4.0652   26.5990 N   0  0  0  0  0  0  0  0  0  0  0  0
    1.2955    3.7872   26.2483 C   0  0  0  0  0  0  0  0  0  0  0  0
    0.4995    3.3561   27.2989 C   0  0  0  0  0  0  0  0  0  0  0  0
   -0.8423    2.9816   27.1132 C   0  0  0  0  0  0  0  0  0  0  0  0
   -1.6002    2.4770   28.2985 C   0  0  0  0  0  0  0  0  0  0  0  0
   -0.6995    1.7040   29.1524 N   0  0  0  0  0  0  0  0  0  0  0  0
   -0.9170    0.3912   29.3411 C   0  0  0  0  0  0  0  0  0  0  0  0
   -0.8011   -0.1450   30.5307 N   0  0  0  0  0  0  0  0  0  0  0  0
   -1.1549   -1.4854   30.4700 C   0  0  0  0  0  0  0  0  0  0  0  0
   -1.1200   -2.5072   31.8825 S   0  0  0  0  0  0  0  0  0  0  0  0
   -1.2307   -1.6040   33.0049 O   0  0  0  0  0  0  0  0  0  0  0  0
   -2.0914   -3.5481   31.6192 O   0  0  0  0  0  0  0  0  0  0  0  0
    0.4162   -3.1888   31.9334 N   0  0  0  0  0  0  0  0  0  0  0  0
    0.8527   -4.0204   30.7986 C   0  0  0  0  0  0  0  0  0  0  0  0
    1.6998   -5.1914   31.2852 C   0  0  0  0  0  0  0  0  0  0  0  0
    0.8264   -6.1763   32.0023 C   0  0  0  0  0  0  0  0  0  0  0  0
    0.6881   -6.0254   33.3328 N   0  0  0  0  0  0  0  0  0  0  0  0
   -0.2854   -6.7347   33.9344 C   0  0  0  0  0  0  0  0  0  0  0  0
   -0.4737   -6.5441   35.4079 C   0  0  0  0  0  0  0  0  0  0  0  0
   -1.0824   -7.6058   33.2324 C   0  0  0  0  0  0  0  0  0  0  0  0
   -0.7693   -7.7579   31.9110 C   0  0  0  0  0  0  0  0  0  0  0  0
   -1.3506   -8.7363   31.1719 O   0  0  0  0  0  0  0  0  0  0  0  0
    0.1662   -7.0740   31.2533 N   0  0  0  0  0  0  0  0  0  0  0  0
   -1.4132   -1.9676   29.2062 C   0  0  0  0  0  0  0  0  0  0  0  0
   -1.2996   -0.7027   28.0724 S   0  0  0  0  0  0  0  0  0  0  0  0
   -1.4431    3.1381   25.8600 C   0  0  0  0  0  0  0  0  0  0  0  0
   -2.8955    2.8221   25.6338 C   0  0  0  0  0  0  0  0  0  0  0  0
   -0.6423    3.5717   24.7995 C   0  0  0  0  0  0  0  0  0  0  0  0
    0.7131    3.8782   24.9901 C   0  0  0  0  0  0  0  0  0  0  0  0
    1.3874    4.2222   23.8600 O   0  0  0  0  0  0  0  0  0  0  0  0
    4.5202    6.3289   27.7520 H   0  0  0  0  0  0  0  0  0  0  0  0
    4.2662    4.8299   28.6579 H   0  0  0  0  0  0  0  0  0  0  0  0
    5.9034    5.4268   28.4008 H   0  0  0  0  0  0  0  0  0  0  0  0
    5.8693    4.9613   26.0520 H   0  0  0  0  0  0  0  0  0  0  0  0
    5.2791    3.4953   26.8361 H   0  0  0  0  0  0  0  0  0  0  0  0
    2.9631    3.7635   27.4996 H   0  0  0  0  0  0  0  0  0  0  0  0
    0.9318    3.2887   28.2944 H   0  0  0  0  0  0  0  0  0  0  0  0
   -1.9545    3.3684   28.8204 H   0  0  0  0  0  0  0  0  0  0  0  0
   -2.4842    1.8979   28.0180 H   0  0  0  0  0  0  0  0  0  0  0  0
   -0.4281    2.2059   29.9889 H   0  0  0  0  0  0  0  0  0  0  0  0
    1.0990   -2.5427   32.3299 H   0  0  0  0  0  0  0  0  0  0  0  0
   -0.0022   -4.3961   30.2266 H   0  0  0  0  0  0  0  0  0  0  0  0
    1.4531   -3.3918   30.1315 H   0  0  0  0  0  0  0  0  0  0  0  0
    2.1709   -5.6859   30.4283 H   0  0  0  0  0  0  0  0  0  0  0  0
    2.5024   -4.8495   31.9488 H   0  0  0  0  0  0  0  0  0  0  0  0
    0.2989   -5.8856   35.8175 H   0  0  0  0  0  0  0  0  0  0  0  0
   -1.4487   -6.0912   35.6080 H   0  0  0  0  0  0  0  0  0  0  0  0
   -0.4103   -7.5056   35.9273 H   0  0  0  0  0  0  0  0  0  0  0  0
   -1.8626   -8.1820   33.7001 H   0  0  0  0  0  0  0  0  0  0  0  0
   -0.6381   -8.8863   30.5168 H   0  0  0  0  0  0  0  0  0  0  0  0
   -1.6591   -2.9734   28.9062 H   0  0  0  0  0  0  0  0  0  0  0  0
   -3.5125    3.2703   26.4147 H   0  0  0  0  0  0  0  0  0  0  0  0
   -3.2435    3.2261   24.6780 H   0  0  0  0  0  0  0  0  0  0  0  0
   -3.0453    1.7392   25.6366 H   0  0  0  0  0  0  0  0  0  0  0  0
   -1.0667    3.6823   23.8026 H   0  0  0  0  0  0  0  0  0  0  0  0
    2.2711    4.5725   24.0899 H   0  0  0  0  0  0  0  0  0  0  0  0
  1  2  1  0
  2  3  1  0
  3  4  2  0
  3  5  1  0
  5  6  1  0
  6  7  2  0
  7  8  1  0
  8  9  1  0
  9 10  1  0
 10 11  1  0
 11 12  2  0
 12 13  1  0
 13 14  1  0
 14 15  2  0
 14 16  2  0
 14 17  1  0
 17 18  1  0
 18 19  1  0
 19 20  1  0
 20 21  2  0
 21 22  1  0
 22 23  1  0
 22 24  2  0
 24 25  1  0
 25 26  1  0
 25 27  2  0
 13 28  2  0
 28 29  1  0
  8 30  2  0
 30 31  1  0
 30 32  1  0
 32 33  2  0
 33 34  1  0
 33  6  1  0
 29 11  1  0
 27 20  1  0
  1 35  1  0
  1 36  1  0
  1 37  1  0
  2 38  1  0
  2 39  1  0
  5 40  1  0
  7 41  1  0
  9 42  1  0
  9 43  1  0
 10 44  1  0
 17 45  1  0
 18 46  1  0
 18 47  1  0
 19 48  1  0
 19 49  1  0
 23 50  1  0
 23 51  1  0
 23 52  1  0
 24 53  1  0
 26 54  1  0
 28 55  1  0
 31 56  1  0
 31 57  1  0
 31 58  1  0
 32 59  1  0
 34 60  1  0
M  END
>  <Energy>  (4) 
-66.3873425765604

>  <compound_id>  (4) 
158

>  <target_id>  (4) 
1

>  <reference_id>  (4) 
57

>  <inspiration_ids>  (4) 
[197, 57]

>  <energy_score>  (4) 
-113.9268837497483

>  <distance_score>  (4) 
0.9346090852514296

>  <path>  (4) 
/opt/xchem-fragalysis-2/maxwin/BulkDock/SCRATCH/505737/C158-P57/C158-P57.minimised.mol

>  <scratch_subdir>  (4) 
/opt/xchem-fragalysis-2/maxwin/BulkDock/SCRATCH/505737/C158-P57

>  <fragmenstein_runtime>  (4) 
3.8961029052734375

>  <fragmenstein_outcome>  (4) 
acceptable

>  <fragmenstein_mode>  (4) 
expansion

>  <fragmenstein_error>  (4) 


$$$$
C159-P197
     RDKit          3D

 46 47  0  0  0  0  0  0  0  0999 V2000
   -6.7150    0.1933   35.0818 C   0  0  0  0  0  0  0  0  0  0  0  0
   -5.6291   -0.7221   34.9358 O   0  0  0  0  0  0  0  0  0  0  0  0
   -4.6456   -0.3094   34.0890 C   0  0  0  0  0  0  0  0  0  0  0  0
   -4.6256    0.7445   33.4573 O   0  0  0  0  0  0  0  0  0  0  0  0
   -3.5744   -1.3717   33.9753 C   0  0  0  0  0  0  0  0  0  0  0  0
   -2.3656   -0.7222   33.4597 N   0  0  0  0  0  0  0  0  0  0  0  0
   -1.2191   -1.5923   33.0774 N   0  0  0  0  0  0  0  0  0  0  0  0
   -1.2626   -2.5085   31.8437 S   0  0  0  0  0  0  0  0  0  0  0  0
   -2.2974   -3.4389   31.4515 O   0  0  0  0  0  0  0  0  0  0  0  0
    0.1346   -3.3981   32.0016 N   0  0  0  0  0  0  0  0  0  0  0  0
    0.7735   -4.0515   30.8781 C   0  0  0  0  0  0  0  0  0  0  0  0
    1.6441   -5.2147   31.3499 C   0  0  0  0  0  0  0  0  0  0  0  0
    0.7943   -6.2423   32.0420 C   0  0  0  0  0  0  0  0  0  0  0  0
    0.6829   -6.1561   33.3815 N   0  0  0  0  0  0  0  0  0  0  0  0
   -0.2859   -6.8852   33.9702 C   0  0  0  0  0  0  0  0  0  0  0  0
   -0.4581   -6.7390   35.4509 C   0  0  0  0  0  0  0  0  0  0  0  0
   -1.0941   -7.7319   33.2493 C   0  0  0  0  0  0  0  0  0  0  0  0
   -0.8051   -7.8174   31.9159 C   0  0  0  0  0  0  0  0  0  0  0  0
   -1.3869   -8.7605   31.1371 O   0  0  0  0  0  0  0  0  0  0  0  0
    0.1187   -7.1068   31.2701 N   0  0  0  0  0  0  0  0  0  0  0  0
   -1.0484   -1.3995   30.5126 C   0  0  0  0  0  0  0  0  0  0  0  0
   -1.3924   -1.7072   29.2128 C   0  0  0  0  0  0  0  0  0  0  0  0
   -0.9510   -0.4213   28.1784 S   0  0  0  0  0  0  0  0  0  0  0  0
   -0.3136    0.4393   29.5183 C   0  0  0  0  0  0  0  0  0  0  0  0
    0.3296    1.7667   29.3343 C   0  0  0  0  0  0  0  0  0  0  0  0
   -0.4194   -0.1657   30.6787 N   0  0  0  0  0  0  0  0  0  0  0  0
   -7.3955    0.0823   34.2352 H   0  0  0  0  0  0  0  0  0  0  0  0
   -7.2567   -0.0714   35.9943 H   0  0  0  0  0  0  0  0  0  0  0  0
   -6.3673    1.2261   35.1813 H   0  0  0  0  0  0  0  0  0  0  0  0
   -3.3710   -1.7992   34.9616 H   0  0  0  0  0  0  0  0  0  0  0  0
   -3.9426   -2.1423   33.2920 H   0  0  0  0  0  0  0  0  0  0  0  0
   -2.6061   -0.0644   32.7103 H   0  0  0  0  0  0  0  0  0  0  0  0
    0.7698   -2.8250   32.5452 H   0  0  0  0  0  0  0  0  0  0  0  0
    0.0177   -4.4310   30.1792 H   0  0  0  0  0  0  0  0  0  0  0  0
    1.3872   -3.3296   30.3280 H   0  0  0  0  0  0  0  0  0  0  0  0
    2.1394   -5.6705   30.4859 H   0  0  0  0  0  0  0  0  0  0  0  0
    2.4324   -4.8637   32.0265 H   0  0  0  0  0  0  0  0  0  0  0  0
   -1.4167   -6.2615   35.6718 H   0  0  0  0  0  0  0  0  0  0  0  0
   -0.4223   -7.7188   35.9375 H   0  0  0  0  0  0  0  0  0  0  0  0
    0.3383   -6.1202   35.8765 H   0  0  0  0  0  0  0  0  0  0  0  0
   -1.8571   -8.3412   33.7072 H   0  0  0  0  0  0  0  0  0  0  0  0
   -0.7024   -8.8216   30.4411 H   0  0  0  0  0  0  0  0  0  0  0  0
   -1.8628   -2.6022   28.8301 H   0  0  0  0  0  0  0  0  0  0  0  0
    1.1977    1.6907   28.6729 H   0  0  0  0  0  0  0  0  0  0  0  0
    0.6783    2.1568   30.2963 H   0  0  0  0  0  0  0  0  0  0  0  0
   -0.3776    2.4902   28.9209 H   0  0  0  0  0  0  0  0  0  0  0  0
  1  2  1  0
  2  3  1  0
  3  4  2  0
  3  5  1  0
  5  6  1  0
  6  7  1  0
  7  8  2  0
  8  9  2  0
  8 10  1  0
 10 11  1  0
 11 12  1  0
 12 13  1  0
 13 14  2  0
 14 15  1  0
 15 16  1  0
 15 17  2  0
 17 18  1  0
 18 19  1  0
 18 20  2  0
  8 21  1  0
 21 22  2  0
 22 23  1  0
 23 24  1  0
 24 25  1  0
 24 26  2  0
 20 13  1  0
 26 21  1  0
  1 27  1  0
  1 28  1  0
  1 29  1  0
  5 30  1  0
  5 31  1  0
  6 32  1  0
 10 33  1  0
 11 34  1  0
 11 35  1  0
 12 36  1  0
 12 37  1  0
 16 38  1  0
 16 39  1  0
 16 40  1  0
 17 41  1  0
 19 42  1  0
 22 43  1  0
 25 44  1  0
 25 45  1  0
 25 46  1  0
M  END
>  <Energy>  (5) 
24.460449485741528

>  <compound_id>  (5) 
159

>  <target_id>  (5) 
1

>  <reference_id>  (5) 
197

>  <inspiration_ids>  (5) 
[197, 59]

>  <energy_score>  (5) 
-138.22207419144573

>  <distance_score>  (5) 
0.6347091897360668

>  <path>  (5) 
/opt/xchem-fragalysis-2/maxwin/BulkDock/SCRATCH/505737/C159-P197/C159-P197.minimised.mol

>  <scratch_subdir>  (5) 
/opt/xchem-fragalysis-2/maxwin/BulkDock/SCRATCH/505737/C159-P197

>  <fragmenstein_runtime>  (5) 
3.403404951095581

>  <fragmenstein_outcome>  (5) 
acceptable

>  <fragmenstein_mode>  (5) 
expansion

>  <fragmenstein_error>  (5) 


$$$$
C159-P59
     RDKit          3D

 46 47  0  0  0  0  0  0  0  0999 V2000
   -7.0353   -0.4497   34.6055 C   0  0  0  0  0  0  0  0  0  0  0  0
   -5.8018   -1.1726   34.6418 O   0  0  0  0  0  0  0  0  0  0  0  0
   -4.7901   -0.5727   33.9548 C   0  0  0  0  0  0  0  0  0  0  0  0
   -4.8628    0.5085   33.3768 O   0  0  0  0  0  0  0  0  0  0  0  0
   -3.5670   -1.4627   33.9142 C   0  0  0  0  0  0  0  0  0  0  0  0
   -2.4465   -0.6778   33.3748 N   0  0  0  0  0  0  0  0  0  0  0  0
   -1.2151   -1.4214   32.9468 N   0  0  0  0  0  0  0  0  0  0  0  0
   -1.2205   -2.3598   31.7268 S   0  0  0  0  0  0  0  0  0  0  0  0
   -2.2440   -3.3173   31.3685 O   0  0  0  0  0  0  0  0  0  0  0  0
    0.1939   -3.2315   31.8842 N   0  0  0  0  0  0  0  0  0  0  0  0
    0.7705   -3.9693   30.7748 C   0  0  0  0  0  0  0  0  0  0  0  0
    1.6334   -5.1382   31.2596 C   0  0  0  0  0  0  0  0  0  0  0  0
    0.7867   -6.1567   31.9690 C   0  0  0  0  0  0  0  0  0  0  0  0
    0.6655   -6.0357   33.3052 N   0  0  0  0  0  0  0  0  0  0  0  0
   -0.2922   -6.7665   33.9084 C   0  0  0  0  0  0  0  0  0  0  0  0
   -0.4629   -6.6049   35.3880 C   0  0  0  0  0  0  0  0  0  0  0  0
   -1.0868   -7.6375   33.2035 C   0  0  0  0  0  0  0  0  0  0  0  0
   -0.7896   -7.7594   31.8751 C   0  0  0  0  0  0  0  0  0  0  0  0
   -1.3800   -8.7218   31.1219 O   0  0  0  0  0  0  0  0  0  0  0  0
    0.1279   -7.0521   31.2145 N   0  0  0  0  0  0  0  0  0  0  0  0
   -1.0611   -1.2612   30.3758 C   0  0  0  0  0  0  0  0  0  0  0  0
   -1.6244   -1.5031   29.1411 C   0  0  0  0  0  0  0  0  0  0  0  0
   -1.2500   -0.2314   28.0615 S   0  0  0  0  0  0  0  0  0  0  0  0
   -0.3393    0.5386   29.2964 C   0  0  0  0  0  0  0  0  0  0  0  0
    0.3367    1.8357   29.0164 C   0  0  0  0  0  0  0  0  0  0  0  0
   -0.2948   -0.0955   30.4495 N   0  0  0  0  0  0  0  0  0  0  0  0
   -7.4330   -0.4427   33.5866 H   0  0  0  0  0  0  0  0  0  0  0  0
   -7.7494   -0.9704   35.2497 H   0  0  0  0  0  0  0  0  0  0  0  0
   -6.9025    0.5666   34.9886 H   0  0  0  0  0  0  0  0  0  0  0  0
   -3.3274   -1.8089   34.9232 H   0  0  0  0  0  0  0  0  0  0  0  0
   -3.8103   -2.3009   33.2575 H   0  0  0  0  0  0  0  0  0  0  0  0
   -2.7802   -0.0606   32.6275 H   0  0  0  0  0  0  0  0  0  0  0  0
    0.8575   -2.6087   32.3308 H   0  0  0  0  0  0  0  0  0  0  0  0
   -0.0216   -4.3574   30.1224 H   0  0  0  0  0  0  0  0  0  0  0  0
    1.3794   -3.2915   30.1659 H   0  0  0  0  0  0  0  0  0  0  0  0
    2.1211   -5.6136   30.4005 H   0  0  0  0  0  0  0  0  0  0  0  0
    2.4302   -4.7843   31.9246 H   0  0  0  0  0  0  0  0  0  0  0  0
   -0.3115   -7.5638   35.8935 H   0  0  0  0  0  0  0  0  0  0  0  0
    0.2631   -5.8900   35.7882 H   0  0  0  0  0  0  0  0  0  0  0  0
   -1.4664   -6.2340   35.6154 H   0  0  0  0  0  0  0  0  0  0  0  0
   -1.8541   -8.2311   33.6722 H   0  0  0  0  0  0  0  0  0  0  0  0
   -0.6943   -8.8198   30.4305 H   0  0  0  0  0  0  0  0  0  0  0  0
   -2.2280   -2.3402   28.8287 H   0  0  0  0  0  0  0  0  0  0  0  0
    1.1325    1.7041   28.2766 H   0  0  0  0  0  0  0  0  0  0  0  0
    0.7867    2.2359   29.9307 H   0  0  0  0  0  0  0  0  0  0  0  0
   -0.3752    2.5772   28.6402 H   0  0  0  0  0  0  0  0  0  0  0  0
  1  2  1  0
  2  3  1  0
  3  4  2  0
  3  5  1  0
  5  6  1  0
  6  7  1  0
  7  8  2  0
  8  9  2  0
  8 10  1  0
 10 11  1  0
 11 12  1  0
 12 13  1  0
 13 14  2  0
 14 15  1  0
 15 16  1  0
 15 17  2  0
 17 18  1  0
 18 19  1  0
 18 20  2  0
  8 21  1  0
 21 22  2  0
 22 23  1  0
 23 24  1  0
 24 25  1  0
 24 26  2  0
 20 13  1  0
 26 21  1  0
  1 27  1  0
  1 28  1  0
  1 29  1  0
  5 30  1  0
  5 31  1  0
  6 32  1  0
 10 33  1  0
 11 34  1  0
 11 35  1  0
 12 36  1  0
 12 37  1  0
 16 38  1  0
 16 39  1  0
 16 40  1  0
 17 41  1  0
 19 42  1  0
 22 43  1  0
 25 44  1  0
 25 45  1  0
 25 46  1  0
M  END
>  <Energy>  (6) 
23.644944511810564

>  <compound_id>  (6) 
159

>  <target_id>  (6) 
1

>  <reference_id>  (6) 
59

>  <inspiration_ids>  (6) 
[197, 59]

>  <energy_score>  (6) 
-139.03757916537643

>  <distance_score>  (6) 
0.605651943477701

>  <path>  (6) 
/opt/xchem-fragalysis-2/maxwin/BulkDock/SCRATCH/505737/C159-P59/C159-P59.minimised.mol

>  <scratch_subdir>  (6) 
/opt/xchem-fragalysis-2/maxwin/BulkDock/SCRATCH/505737/C159-P59

>  <fragmenstein_runtime>  (6) 
2.8249893188476562

>  <fragmenstein_outcome>  (6) 
acceptable

>  <fragmenstein_mode>  (6) 
expansion

>  <fragmenstein_error>  (6) 


$$$$
C160-P197
     RDKit          3D

 52 54  0  0  0  0  0  0  0  0999 V2000
   -0.4537   -6.3874   35.3388 C   0  0  0  0  0  0  0  0  0  0  0  0
   -0.3553   -6.5749   33.8543 C   0  0  0  0  0  0  0  0  0  0  0  0
   -1.0456   -7.5917   33.2361 C   0  0  0  0  0  0  0  0  0  0  0  0
   -0.8113   -7.7244   31.8957 C   0  0  0  0  0  0  0  0  0  0  0  0
   -1.3269   -8.7701   31.2035 O   0  0  0  0  0  0  0  0  0  0  0  0
   -0.0133   -6.9453   31.1648 N   0  0  0  0  0  0  0  0  0  0  0  0
    0.5643   -5.9378   31.8388 C   0  0  0  0  0  0  0  0  0  0  0  0
    1.3596   -4.9393   31.0481 C   0  0  0  0  0  0  0  0  0  0  0  0
    0.4685   -3.7995   30.5527 C   0  0  0  0  0  0  0  0  0  0  0  0
    0.1464   -2.8432   31.6436 N   0  0  0  0  0  0  0  0  0  0  0  0
   -1.3469   -2.0654   31.6097 S   0  0  0  0  0  0  0  0  0  0  0  0
   -1.4229   -1.3176   32.8483 O   0  0  0  0  0  0  0  0  0  0  0  0
   -2.3360   -3.0928   31.3384 O   0  0  0  0  0  0  0  0  0  0  0  0
   -1.2914   -0.8550   30.1936 C   0  0  0  0  0  0  0  0  0  0  0  0
   -0.6463    0.4750   30.6108 C   0  0  0  0  0  0  0  0  0  0  0  0
   -0.2835    1.3096   29.1105 S   0  0  0  0  0  0  0  0  0  0  0  0
   -0.5416   -0.0752   28.0749 C   0  0  0  0  0  0  0  0  0  0  0  0
   -0.6381   -1.2736   28.9247 N   0  0  0  0  0  0  0  0  0  0  0  0
    1.2930    1.8938   29.0777 N   0  0  0  0  0  0  0  0  0  0  0  0
    1.3039    3.3389   28.7306 O   0  0  0  0  0  0  0  0  0  0  0  0
   -0.0369    3.8934   28.8197 C   0  0  0  0  0  0  0  0  0  0  0  0
   -0.0753    5.2318   27.9175 C   0  0  0  0  0  0  0  0  0  0  0  0
   -1.4865    5.7672   27.6069 C   0  0  0  0  0  0  0  0  0  0  0  0
    0.8181    5.3113   26.6365 C   0  0  0  0  0  0  0  0  0  0  0  0
   -0.9808    2.7705   28.6668 N   0  0  0  0  0  0  0  0  0  0  0  0
    0.4506   -5.7354   33.1666 N   0  0  0  0  0  0  0  0  0  0  0  0
   -0.0987   -7.2838   35.8571 H   0  0  0  0  0  0  0  0  0  0  0  0
   -1.4893   -6.1918   35.6288 H   0  0  0  0  0  0  0  0  0  0  0  0
    0.1569   -5.5394   35.6648 H   0  0  0  0  0  0  0  0  0  0  0  0
   -1.6876   -8.2737   33.7723 H   0  0  0  0  0  0  0  0  0  0  0  0
   -0.6773   -8.8228   30.4748 H   0  0  0  0  0  0  0  0  0  0  0  0
    1.8053   -5.4511   30.1868 H   0  0  0  0  0  0  0  0  0  0  0  0
    2.1854   -4.5555   31.6585 H   0  0  0  0  0  0  0  0  0  0  0  0
   -0.4388   -4.1999   30.0892 H   0  0  0  0  0  0  0  0  0  0  0  0
    1.0185   -3.2429   29.7867 H   0  0  0  0  0  0  0  0  0  0  0  0
    0.2978   -3.2142   32.5884 H   0  0  0  0  0  0  0  0  0  0  0  0
   -2.3482   -0.6626   29.9799 H   0  0  0  0  0  0  0  0  0  0  0  0
    0.2971    0.3129   31.1411 H   0  0  0  0  0  0  0  0  0  0  0  0
   -1.3089    1.0615   31.2405 H   0  0  0  0  0  0  0  0  0  0  0  0
   -1.4746    0.0771   27.5269 H   0  0  0  0  0  0  0  0  0  0  0  0
    0.3002   -0.1860   27.3924 H   0  0  0  0  0  0  0  0  0  0  0  0
   -1.2166   -1.9741   28.4543 H   0  0  0  0  0  0  0  0  0  0  0  0
    1.7376    1.9097   29.9952 H   0  0  0  0  0  0  0  0  0  0  0  0
   -0.1159    4.2264   29.8591 H   0  0  0  0  0  0  0  0  0  0  0  0
    0.3874    5.9764   28.5849 H   0  0  0  0  0  0  0  0  0  0  0  0
   -2.2557    5.0553   27.9152 H   0  0  0  0  0  0  0  0  0  0  0  0
   -1.6521    6.6927   28.1705 H   0  0  0  0  0  0  0  0  0  0  0  0
   -1.6156    6.0129   26.5481 H   0  0  0  0  0  0  0  0  0  0  0  0
    1.1904    6.3411   26.5505 H   0  0  0  0  0  0  0  0  0  0  0  0
    1.7047    4.6775   26.7117 H   0  0  0  0  0  0  0  0  0  0  0  0
    0.3084    5.1290   25.6880 H   0  0  0  0  0  0  0  0  0  0  0  0
   -1.9633    2.9741   28.8268 H   0  0  0  0  0  0  0  0  0  0  0  0
  1  2  1  0
  2  3  2  0
  3  4  1  0
  4  5  1  0
  4  6  2  0
  6  7  1  0
  7  8  1  0
  8  9  1  0
  9 10  1  0
 10 11  1  0
 11 12  2  0
 11 13  2  0
 11 14  1  0
 14 15  1  0
 15 16  1  0
 16 17  1  0
 17 18  1  0
 16 19  1  0
 19 20  1  0
 20 21  1  0
 21 22  1  0
 22 23  1  0
 22 24  1  0
 21 25  1  0
  7 26  2  0
 26  2  1  0
 18 14  1  0
 25 16  1  0
  1 27  1  0
  1 28  1  0
  1 29  1  0
  3 30  1  0
  5 31  1  0
  8 32  1  0
  8 33  1  0
  9 34  1  0
  9 35  1  0
 10 36  1  0
 14 37  1  0
 15 38  1  0
 15 39  1  0
 17 40  1  0
 17 41  1  0
 18 42  1  0
 19 43  1  0
 21 44  1  0
 22 45  1  0
 23 46  1  0
 23 47  1  0
 23 48  1  0
 24 49  1  0
 24 50  1  0
 24 51  1  0
 25 52  1  0
M  END
>  <Energy>  (7) 
20.7716087749154

>  <compound_id>  (7) 
160

>  <target_id>  (7) 
1

>  <reference_id>  (7) 
197

>  <inspiration_ids>  (7) 
[197, 70]

>  <energy_score>  (7) 
-71.02343440760671

>  <distance_score>  (7) 
2.3699998902965187

>  <path>  (7) 
/opt/xchem-fragalysis-2/maxwin/BulkDock/SCRATCH/505737/C160-P197/C160-P197.minimised.mol

>  <scratch_subdir>  (7) 
/opt/xchem-fragalysis-2/maxwin/BulkDock/SCRATCH/505737/C160-P197

>  <fragmenstein_runtime>  (7) 
5.598643779754639

>  <fragmenstein_outcome>  (7) 
too moved

>  <fragmenstein_mode>  (7) 
expansion

>  <fragmenstein_error>  (7) 


$$$$
C160-P70
     RDKit          3D

 52 54  0  0  0  0  0  0  0  0999 V2000
   -0.5743   -6.5208   35.0880 C   0  0  0  0  0  0  0  0  0  0  0  0
   -0.4647   -6.5928   33.6101 C   0  0  0  0  0  0  0  0  0  0  0  0
   -1.0966   -7.5812   32.8966 C   0  0  0  0  0  0  0  0  0  0  0  0
   -0.8289   -7.5581   31.5606 C   0  0  0  0  0  0  0  0  0  0  0  0
   -1.2830   -8.5268   30.7346 O   0  0  0  0  0  0  0  0  0  0  0  0
   -0.0427   -6.6907   30.9295 N   0  0  0  0  0  0  0  0  0  0  0  0
    0.5576   -5.7938   31.7227 C   0  0  0  0  0  0  0  0  0  0  0  0
    1.5199   -4.8436   31.0841 C   0  0  0  0  0  0  0  0  0  0  0  0
    0.7807   -3.7316   30.3541 C   0  0  0  0  0  0  0  0  0  0  0  0
    0.2325   -2.7466   31.2996 N   0  0  0  0  0  0  0  0  0  0  0  0
   -1.1894   -1.9391   30.9076 S   0  0  0  0  0  0  0  0  0  0  0  0
   -1.4087   -1.0086   31.9964 O   0  0  0  0  0  0  0  0  0  0  0  0
   -2.1742   -2.9634   30.6260 O   0  0  0  0  0  0  0  0  0  0  0  0
   -0.6997   -1.0025   29.3222 C   0  0  0  0  0  0  0  0  0  0  0  0
   -1.9117   -0.2398   28.7628 C   0  0  0  0  0  0  0  0  0  0  0  0
   -1.2835    1.1348   27.8716 S   0  0  0  0  0  0  0  0  0  0  0  0
    0.3895    0.8825   28.3020 C   0  0  0  0  0  0  0  0  0  0  0  0
    0.4208   -0.0193   29.4675 N   0  0  0  0  0  0  0  0  0  0  0  0
   -1.8830    2.6002   28.3822 N   0  0  0  0  0  0  0  0  0  0  0  0
   -2.1101    3.4989   27.2517 O   0  0  0  0  0  0  0  0  0  0  0  0
   -2.2800    2.7177   26.0411 C   0  0  0  0  0  0  0  0  0  0  0  0
   -1.7500    3.6584   24.9185 C   0  0  0  0  0  0  0  0  0  0  0  0
   -2.9162    4.3943   24.2451 C   0  0  0  0  0  0  0  0  0  0  0  0
   -0.8687    3.0574   23.8390 C   0  0  0  0  0  0  0  0  0  0  0  0
   -1.6821    1.3628   26.2365 N   0  0  0  0  0  0  0  0  0  0  0  0
    0.3712   -5.7002   33.0469 N   0  0  0  0  0  0  0  0  0  0  0  0
    0.2252   -7.1255   35.5153 H   0  0  0  0  0  0  0  0  0  0  0  0
   -1.5423   -6.8845   35.4405 H   0  0  0  0  0  0  0  0  0  0  0  0
   -0.4507   -5.4851   35.4153 H   0  0  0  0  0  0  0  0  0  0  0  0
   -1.7209   -8.3367   33.3455 H   0  0  0  0  0  0  0  0  0  0  0  0
   -0.6061   -8.3928   30.0303 H   0  0  0  0  0  0  0  0  0  0  0  0
    2.1354   -5.4026   30.3695 H   0  0  0  0  0  0  0  0  0  0  0  0
    2.2001   -4.4313   31.8388 H   0  0  0  0  0  0  0  0  0  0  0  0
   -0.0057   -4.1460   29.7138 H   0  0  0  0  0  0  0  0  0  0  0  0
    1.4910   -3.2039   29.7071 H   0  0  0  0  0  0  0  0  0  0  0  0
    0.8804   -2.1809   31.8492 H   0  0  0  0  0  0  0  0  0  0  0  0
   -0.4071   -1.7789   28.6046 H   0  0  0  0  0  0  0  0  0  0  0  0
   -2.5263    0.1501   29.5760 H   0  0  0  0  0  0  0  0  0  0  0  0
   -2.4895   -0.8648   28.0805 H   0  0  0  0  0  0  0  0  0  0  0  0
    0.8922    0.4253   27.4459 H   0  0  0  0  0  0  0  0  0  0  0  0
    0.8592    1.8396   28.5373 H   0  0  0  0  0  0  0  0  0  0  0  0
    1.3149   -0.5018   29.5044 H   0  0  0  0  0  0  0  0  0  0  0  0
   -2.8470    2.5643   28.7246 H   0  0  0  0  0  0  0  0  0  0  0  0
   -3.3629    2.5785   25.9328 H   0  0  0  0  0  0  0  0  0  0  0  0
   -1.1342    4.4338   25.3976 H   0  0  0  0  0  0  0  0  0  0  0  0
   -3.5371    3.7150   23.6563 H   0  0  0  0  0  0  0  0  0  0  0  0
   -3.5495    4.8783   24.9884 H   0  0  0  0  0  0  0  0  0  0  0  0
   -2.5447    5.1731   23.5701 H   0  0  0  0  0  0  0  0  0  0  0  0
   -0.4424    3.8523   23.2150 H   0  0  0  0  0  0  0  0  0  0  0  0
   -0.0262    2.5351   24.2940 H   0  0  0  0  0  0  0  0  0  0  0  0
   -1.4117    2.3989   23.1630 H   0  0  0  0  0  0  0  0  0  0  0  0
   -2.4119    0.6927   26.0007 H   0  0  0  0  0  0  0  0  0  0  0  0
  1  2  1  0
  2  3  2  0
  3  4  1  0
  4  5  1  0
  4  6  2  0
  6  7  1  0
  7  8  1  0
  8  9  1  0
  9 10  1  0
 10 11  1  0
 11 12  2  0
 11 13  2  0
 11 14  1  0
 14 15  1  0
 15 16  1  0
 16 17  1  0
 17 18  1  0
 16 19  1  0
 19 20  1  0
 20 21  1  0
 21 22  1  0
 22 23  1  0
 22 24  1  0
 21 25  1  0
  7 26  2  0
 26  2  1  0
 18 14  1  0
 25 16  1  0
  1 27  1  0
  1 28  1  0
  1 29  1  0
  3 30  1  0
  5 31  1  0
  8 32  1  0
  8 33  1  0
  9 34  1  0
  9 35  1  0
 10 36  1  0
 14 37  1  0
 15 38  1  0
 15 39  1  0
 17 40  1  0
 17 41  1  0
 18 42  1  0
 19 43  1  0
 21 44  1  0
 22 45  1  0
 23 46  1  0
 23 47  1  0
 23 48  1  0
 24 49  1  0
 24 50  1  0
 24 51  1  0
 25 52  1  0
M  END
>  <Energy>  (8) 
14.05138928282809

>  <compound_id>  (8) 
160

>  <target_id>  (8) 
1

>  <reference_id>  (8) 
70

>  <inspiration_ids>  (8) 
[197, 70]

>  <energy_score>  (8) 
-77.74365389969361

>  <distance_score>  (8) 
1.1345232225121937

>  <path>  (8) 
/opt/xchem-fragalysis-2/maxwin/BulkDock/SCRATCH/505737/C160-P70/C160-P70.minimised.mol

>  <scratch_subdir>  (8) 
/opt/xchem-fragalysis-2/maxwin/BulkDock/SCRATCH/505737/C160-P70

>  <fragmenstein_runtime>  (8) 
4.080832242965698

>  <fragmenstein_outcome>  (8) 
too moved

>  <fragmenstein_mode>  (8) 
expansion

>  <fragmenstein_error>  (8) 


$$$$
C161-P197
     RDKit          3D

 32 34  0  0  0  0  0  0  0  0999 V2000
   -1.3884   -1.5453   32.9657 O   0  0  0  0  0  0  0  0  0  0  0  0
   -1.2524   -2.4209   31.8242 S   0  0  0  0  0  0  0  0  0  0  0  0
   -2.2438   -3.4236   31.4939 O   0  0  0  0  0  0  0  0  0  0  0  0
    0.2467   -3.1728   31.9448 N   0  0  0  0  0  0  0  0  0  0  0  0
    0.7613   -3.8879   30.7641 C   0  0  0  0  0  0  0  0  0  0  0  0
    1.5700   -5.1080   31.1937 C   0  0  0  0  0  0  0  0  0  0  0  0
    0.6646   -6.1749   31.6953 C   0  0  0  0  0  0  0  0  0  0  0  0
    0.1229   -7.1291   30.9607 N   0  0  0  0  0  0  0  0  0  0  0  0
   -0.7105   -7.7740   31.8128 C   0  0  0  0  0  0  0  0  0  0  0  0
   -1.3764   -8.8746   31.4622 O   0  0  0  0  0  0  0  0  0  0  0  0
   -0.6666   -7.2567   33.0826 C   0  0  0  0  0  0  0  0  0  0  0  0
   -1.2474   -7.5389   34.3313 C   0  0  0  0  0  0  0  0  0  0  0  0
   -0.8245   -6.8618   35.4034 C   0  0  0  0  0  0  0  0  0  0  0  0
    0.2136   -5.8312   35.1871 C   0  0  0  0  0  0  0  0  0  0  0  0
    0.7712   -5.5288   34.0579 N   0  0  0  0  0  0  0  0  0  0  0  0
    0.2746   -6.2543   33.0149 N   0  0  0  0  0  0  0  0  0  0  0  0
   -1.1692   -1.3590   30.4340 C   0  0  0  0  0  0  0  0  0  0  0  0
   -1.4614   -1.7868   29.1547 C   0  0  0  0  0  0  0  0  0  0  0  0
   -1.1448   -0.5388   28.0357 S   0  0  0  0  0  0  0  0  0  0  0  0
   -0.6537    0.4770   29.3238 C   0  0  0  0  0  0  0  0  0  0  0  0
   -0.6675   -0.0584   30.5253 N   0  0  0  0  0  0  0  0  0  0  0  0
    0.9116   -2.5995   32.4649 H   0  0  0  0  0  0  0  0  0  0  0  0
    1.4073   -3.2013   30.2060 H   0  0  0  0  0  0  0  0  0  0  0  0
   -0.0536   -4.2036   30.1037 H   0  0  0  0  0  0  0  0  0  0  0  0
    2.3216   -4.8389   31.9446 H   0  0  0  0  0  0  0  0  0  0  0  0
    2.1151   -5.4941   30.3241 H   0  0  0  0  0  0  0  0  0  0  0  0
   -0.8479   -9.2723   30.7435 H   0  0  0  0  0  0  0  0  0  0  0  0
   -2.0072   -8.3061   34.4099 H   0  0  0  0  0  0  0  0  0  0  0  0
   -1.1817   -7.0200   36.4075 H   0  0  0  0  0  0  0  0  0  0  0  0
    0.5303   -5.2917   36.0955 H   0  0  0  0  0  0  0  0  0  0  0  0
   -1.8276   -2.7507   28.8316 H   0  0  0  0  0  0  0  0  0  0  0  0
   -0.3364    1.4960   29.1442 H   0  0  0  0  0  0  0  0  0  0  0  0
  1  2  2  0
  2  3  2  0
  2  4  1  0
  4  5  1  0
  5  6  1  0
  6  7  1  0
  7  8  2  0
  8  9  1  0
  9 10  1  0
  9 11  2  0
 11 12  1  0
 12 13  2  0
 13 14  1  0
 14 15  2  0
 15 16  1  0
  2 17  1  0
 17 18  2  0
 18 19  1  0
 19 20  1  0
 20 21  2  0
 16  7  1  0
 21 17  1  0
 16 11  1  0
  4 22  1  0
  5 23  1  0
  5 24  1  0
  6 25  1  0
  6 26  1  0
 10 27  1  0
 12 28  1  0
 13 29  1  0
 14 30  1  0
 18 31  1  0
 20 32  1  0
M  END
>  <Energy>  (9) 
-11.231832979084157

>  <compound_id>  (9) 
161

>  <target_id>  (9) 
1

>  <reference_id>  (9) 
197

>  <inspiration_ids>  (9) 
[197, 72]

>  <energy_score>  (9) 
-102.17832514831306

>  <distance_score>  (9) 
0.758021308668291

>  <path>  (9) 
/opt/xchem-fragalysis-2/maxwin/BulkDock/SCRATCH/505737/C161-P197/C161-P197.minimised.mol

>  <scratch_subdir>  (9) 
/opt/xchem-fragalysis-2/maxwin/BulkDock/SCRATCH/505737/C161-P197

>  <fragmenstein_runtime>  (9) 
1.3382055759429932

>  <fragmenstein_outcome>  (9) 
acceptable

>  <fragmenstein_mode>  (9) 
expansion

>  <fragmenstein_error>  (9) 


$$$$
C161-P72
     RDKit          3D

 32 34  0  0  0  0  0  0  0  0999 V2000
   -1.3903   -1.4649   32.8957 O   0  0  0  0  0  0  0  0  0  0  0  0
   -1.2232   -2.3196   31.7423 S   0  0  0  0  0  0  0  0  0  0  0  0
   -2.2287   -3.2825   31.3453 O   0  0  0  0  0  0  0  0  0  0  0  0
    0.2415   -3.1271   31.9238 N   0  0  0  0  0  0  0  0  0  0  0  0
    0.7796   -3.8378   30.7506 C   0  0  0  0  0  0  0  0  0  0  0  0
    1.5840   -5.0564   31.1963 C   0  0  0  0  0  0  0  0  0  0  0  0
    0.6750   -6.1316   31.6719 C   0  0  0  0  0  0  0  0  0  0  0  0
    0.1516   -7.0785   30.9153 N   0  0  0  0  0  0  0  0  0  0  0  0
   -0.6856   -7.7459   31.7464 C   0  0  0  0  0  0  0  0  0  0  0  0
   -1.3212   -8.8563   31.3673 O   0  0  0  0  0  0  0  0  0  0  0  0
   -0.6687   -7.2441   33.0228 C   0  0  0  0  0  0  0  0  0  0  0  0
   -1.2668   -7.5478   34.2576 C   0  0  0  0  0  0  0  0  0  0  0  0
   -0.8652   -6.8889   35.3491 C   0  0  0  0  0  0  0  0  0  0  0  0
    0.1686   -5.8472   35.1634 C   0  0  0  0  0  0  0  0  0  0  0  0
    0.7393   -5.5206   34.0470 N   0  0  0  0  0  0  0  0  0  0  0  0
    0.2650   -6.2329   32.9845 N   0  0  0  0  0  0  0  0  0  0  0  0
   -1.0319   -1.2238   30.3885 C   0  0  0  0  0  0  0  0  0  0  0  0
   -1.4478   -1.5174   29.1060 C   0  0  0  0  0  0  0  0  0  0  0  0
   -1.0315   -0.2382   28.0472 S   0  0  0  0  0  0  0  0  0  0  0  0
   -0.2789    0.5758   29.3517 C   0  0  0  0  0  0  0  0  0  0  0  0
   -0.3140   -0.0321   30.5182 N   0  0  0  0  0  0  0  0  0  0  0  0
    0.9039   -2.5620   32.4571 H   0  0  0  0  0  0  0  0  0  0  0  0
    1.4366   -3.1492   30.2078 H   0  0  0  0  0  0  0  0  0  0  0  0
   -0.0229   -4.1498   30.0727 H   0  0  0  0  0  0  0  0  0  0  0  0
    2.3158   -4.7854   31.9659 H   0  0  0  0  0  0  0  0  0  0  0  0
    2.1529   -5.4375   30.3396 H   0  0  0  0  0  0  0  0  0  0  0  0
   -0.7534   -9.2271   30.6609 H   0  0  0  0  0  0  0  0  0  0  0  0
   -2.0239   -8.3193   34.3112 H   0  0  0  0  0  0  0  0  0  0  0  0
   -1.2372   -7.0755   36.3438 H   0  0  0  0  0  0  0  0  0  0  0  0
    0.4687   -5.3201   36.0846 H   0  0  0  0  0  0  0  0  0  0  0  0
   -1.9666   -2.3932   28.7466 H   0  0  0  0  0  0  0  0  0  0  0  0
    0.1974    1.5384   29.2109 H   0  0  0  0  0  0  0  0  0  0  0  0
  1  2  2  0
  2  3  2  0
  2  4  1  0
  4  5  1  0
  5  6  1  0
  6  7  1  0
  7  8  2  0
  8  9  1  0
  9 10  1  0
  9 11  2  0
 11 12  1  0
 12 13  2  0
 13 14  1  0
 14 15  2  0
 15 16  1  0
  2 17  1  0
 17 18  2  0
 18 19  1  0
 19 20  1  0
 20 21  2  0
 16  7  1  0
 21 17  1  0
 16 11  1  0
  4 22  1  0
  5 23  1  0
  5 24  1  0
  6 25  1  0
  6 26  1  0
 10 27  1  0
 12 28  1  0
 13 29  1  0
 14 30  1  0
 18 31  1  0
 20 32  1  0
M  END
>  <Energy>  (10) 
-12.08288138639729

>  <compound_id>  (10) 
161

>  <target_id>  (10) 
1

>  <reference_id>  (10) 
72

>  <inspiration_ids>  (10) 
[197, 72]

>  <energy_score>  (10) 
-103.02937355562494

>  <distance_score>  (10) 
0.7849095550736888

>  <path>  (10) 
/opt/xchem-fragalysis-2/maxwin/BulkDock/SCRATCH/505737/C161-P72/C161-P72.minimised.mol

>  <scratch_subdir>  (10) 
/opt/xchem-fragalysis-2/maxwin/BulkDock/SCRATCH/505737/C161-P72

>  <fragmenstein_runtime>  (10) 
1.1830241680145264

>  <fragmenstein_outcome>  (10) 
acceptable

>  <fragmenstein_mode>  (10) 
expansion

>  <fragmenstein_error>  (10) 


$$$$
C162-P197
     RDKit          3D

 41 43  0  0  0  0  0  0  0  0999 V2000
   -0.6551   -4.3896   36.2484 C   0  0  0  0  0  0  0  0  0  0  0  0
    0.1718   -5.6657   36.4325 C   0  0  0  0  0  0  0  0  0  0  0  0
    0.3212   -5.9596   37.9262 C   0  0  0  0  0  0  0  0  0  0  0  0
    1.4973   -5.4585   35.9341 O   0  0  0  0  0  0  0  0  0  0  0  0
    1.7603   -5.6631   34.6290 C   0  0  0  0  0  0  0  0  0  0  0  0
    2.8798   -5.4781   34.1727 O   0  0  0  0  0  0  0  0  0  0  0  0
    0.6648   -6.2379   33.8159 C   0  0  0  0  0  0  0  0  0  0  0  0
   -0.3556   -6.8821   34.5190 C   0  0  0  0  0  0  0  0  0  0  0  0
   -1.2975   -7.6669   33.8610 C   0  0  0  0  0  0  0  0  0  0  0  0
   -1.2110   -7.8210   32.4898 C   0  0  0  0  0  0  0  0  0  0  0  0
   -2.0884   -8.6055   31.7968 O   0  0  0  0  0  0  0  0  0  0  0  0
   -0.2153   -7.1562   31.7735 C   0  0  0  0  0  0  0  0  0  0  0  0
   -0.0672   -7.5943   29.9426 Br  0  0  0  0  0  0  0  0  0  0  0  0
    0.6955   -6.2854   32.4032 C   0  0  0  0  0  0  0  0  0  0  0  0
    1.5510   -5.3434   31.5660 C   0  0  0  0  0  0  0  0  0  0  0  0
    0.7337   -4.1670   31.0088 C   0  0  0  0  0  0  0  0  0  0  0  0
    0.2628   -3.3191   32.1219 N   0  0  0  0  0  0  0  0  0  0  0  0
   -1.2165   -2.5285   31.9141 S   0  0  0  0  0  0  0  0  0  0  0  0
   -1.3784   -1.6302   33.0340 O   0  0  0  0  0  0  0  0  0  0  0  0
   -2.2133   -3.5208   31.5669 O   0  0  0  0  0  0  0  0  0  0  0  0
   -1.0622   -1.4919   30.5106 C   0  0  0  0  0  0  0  0  0  0  0  0
   -1.3959   -1.8983   29.2345 C   0  0  0  0  0  0  0  0  0  0  0  0
   -1.0528   -0.6521   28.1154 S   0  0  0  0  0  0  0  0  0  0  0  0
   -0.4757    0.3243   29.3992 C   0  0  0  0  0  0  0  0  0  0  0  0
   -0.4882   -0.2210   30.5965 N   0  0  0  0  0  0  0  0  0  0  0  0
   -0.4966   -6.7990   35.8723 O   0  0  0  0  0  0  0  0  0  0  0  0
   -0.7667   -4.1305   35.1902 H   0  0  0  0  0  0  0  0  0  0  0  0
   -0.1719   -3.5334   36.7313 H   0  0  0  0  0  0  0  0  0  0  0  0
   -1.6631   -4.5103   36.6570 H   0  0  0  0  0  0  0  0  0  0  0  0
    0.8523   -5.1527   38.4426 H   0  0  0  0  0  0  0  0  0  0  0  0
   -0.6521   -6.1106   38.4043 H   0  0  0  0  0  0  0  0  0  0  0  0
    0.9014   -6.8777   38.0777 H   0  0  0  0  0  0  0  0  0  0  0  0
   -2.0606   -8.1756   34.4394 H   0  0  0  0  0  0  0  0  0  0  0  0
   -2.7528   -9.0240   32.3763 H   0  0  0  0  0  0  0  0  0  0  0  0
    2.0134   -5.8826   30.7351 H   0  0  0  0  0  0  0  0  0  0  0  0
    2.3958   -4.9342   32.1185 H   0  0  0  0  0  0  0  0  0  0  0  0
   -0.1062   -4.5376   30.4145 H   0  0  0  0  0  0  0  0  0  0  0  0
    1.3692   -3.5605   30.3543 H   0  0  0  0  0  0  0  0  0  0  0  0
    0.9583   -2.6700   32.4982 H   0  0  0  0  0  0  0  0  0  0  0  0
   -1.8198   -2.8380   28.9116 H   0  0  0  0  0  0  0  0  0  0  0  0
   -0.1106    1.3275   29.2200 H   0  0  0  0  0  0  0  0  0  0  0  0
  1  2  1  0
  2  3  1  0
  2  4  1  0
  4  5  1  0
  5  6  2  0
  5  7  1  0
  7  8  2  0
  8  9  1  0
  9 10  2  0
 10 11  1  0
 10 12  1  0
 12 13  1  0
 12 14  2  0
 14 15  1  0
 15 16  1  0
 16 17  1  0
 17 18  1  0
 18 19  2  0
 18 20  2  0
 18 21  1  0
 21 22  2  0
 22 23  1  0
 23 24  1  0
 24 25  2  0
  8 26  1  0
 26  2  1  0
 14  7  1  0
 25 21  1  0
  1 27  1  0
  1 28  1  0
  1 29  1  0
  3 30  1  0
  3 31  1  0
  3 32  1  0
  9 33  1  0
 11 34  1  0
 15 35  1  0
 15 36  1  0
 16 37  1  0
 16 38  1  0
 17 39  1  0
 22 40  1  0
 24 41  1  0
M  END
>  <Energy>  (11) 
35.503146104775112

>  <compound_id>  (11) 
162

>  <target_id>  (11) 
1

>  <reference_id>  (11) 
197

>  <inspiration_ids>  (11) 
[197, 78]

>  <energy_score>  (11) 
-61.43483562640324

>  <distance_score>  (11) 
0.2634496053218448

>  <path>  (11) 
/opt/xchem-fragalysis-2/maxwin/BulkDock/SCRATCH/505737/C162-P197/C162-P197.minimised.mol

>  <scratch_subdir>  (11) 
/opt/xchem-fragalysis-2/maxwin/BulkDock/SCRATCH/505737/C162-P197

>  <fragmenstein_runtime>  (11) 
2.3892900943756104

>  <fragmenstein_outcome>  (11) 
acceptable

>  <fragmenstein_mode>  (11) 
expansion

>  <fragmenstein_error>  (11) 


$$$$
C162-P78
     RDKit          3D

 41 43  0  0  0  0  0  0  0  0999 V2000
   -0.6111   -4.2993   36.2660 C   0  0  0  0  0  0  0  0  0  0  0  0
    0.1863   -5.5910   36.4675 C   0  0  0  0  0  0  0  0  0  0  0  0
    0.3270   -5.8715   37.9646 C   0  0  0  0  0  0  0  0  0  0  0  0
    1.5161   -5.4228   35.9668 O   0  0  0  0  0  0  0  0  0  0  0  0
    1.7736   -5.6467   34.6633 C   0  0  0  0  0  0  0  0  0  0  0  0
    2.8935   -5.4790   34.2014 O   0  0  0  0  0  0  0  0  0  0  0  0
    0.6686   -6.2182   33.8614 C   0  0  0  0  0  0  0  0  0  0  0  0
   -0.3683   -6.8244   34.5744 C   0  0  0  0  0  0  0  0  0  0  0  0
   -1.3297   -7.5956   33.9303 C   0  0  0  0  0  0  0  0  0  0  0  0
   -1.2385   -7.7881   32.5654 C   0  0  0  0  0  0  0  0  0  0  0  0
   -2.1380   -8.5637   31.8900 O   0  0  0  0  0  0  0  0  0  0  0  0
   -0.2193   -7.1707   31.8418 C   0  0  0  0  0  0  0  0  0  0  0  0
   -0.0513   -7.6779   30.0356 Br  0  0  0  0  0  0  0  0  0  0  0  0
    0.7020   -6.2980   32.4512 C   0  0  0  0  0  0  0  0  0  0  0  0
    1.5647   -5.3826   31.5911 C   0  0  0  0  0  0  0  0  0  0  0  0
    0.7540   -4.2074   31.0104 C   0  0  0  0  0  0  0  0  0  0  0  0
    0.3006   -3.3294   32.1076 N   0  0  0  0  0  0  0  0  0  0  0  0
   -1.1544   -2.4960   31.8913 S   0  0  0  0  0  0  0  0  0  0  0  0
   -1.3125   -1.6211   33.0304 O   0  0  0  0  0  0  0  0  0  0  0  0
   -2.1723   -3.4544   31.5114 O   0  0  0  0  0  0  0  0  0  0  0  0
   -0.9603   -1.4244   30.5191 C   0  0  0  0  0  0  0  0  0  0  0  0
   -1.3910   -1.7304   29.2444 C   0  0  0  0  0  0  0  0  0  0  0  0
   -1.0222   -0.4431   28.1752 S   0  0  0  0  0  0  0  0  0  0  0  0
   -0.2789    0.3977   29.4696 C   0  0  0  0  0  0  0  0  0  0  0  0
   -0.2722   -0.2143   30.6347 N   0  0  0  0  0  0  0  0  0  0  0  0
   -0.5128   -6.7128   35.9249 O   0  0  0  0  0  0  0  0  0  0  0  0
   -0.7249   -4.0567   35.2041 H   0  0  0  0  0  0  0  0  0  0  0  0
   -0.1048   -3.4464   36.7307 H   0  0  0  0  0  0  0  0  0  0  0  0
   -1.6186   -4.3895   36.6834 H   0  0  0  0  0  0  0  0  0  0  0  0
    0.8661   -5.0659   38.4746 H   0  0  0  0  0  0  0  0  0  0  0  0
   -0.6502   -6.0070   38.4405 H   0  0  0  0  0  0  0  0  0  0  0  0
    0.8961   -6.7945   38.1275 H   0  0  0  0  0  0  0  0  0  0  0  0
   -2.1069   -8.0722   34.5170 H   0  0  0  0  0  0  0  0  0  0  0  0
   -2.7941   -8.9574   32.4937 H   0  0  0  0  0  0  0  0  0  0  0  0
    2.0237   -5.9490   30.7749 H   0  0  0  0  0  0  0  0  0  0  0  0
    2.4131   -4.9681   32.1345 H   0  0  0  0  0  0  0  0  0  0  0  0
   -0.0951   -4.5812   30.4311 H   0  0  0  0  0  0  0  0  0  0  0  0
    1.3919   -3.6233   30.3382 H   0  0  0  0  0  0  0  0  0  0  0  0
    1.0128   -2.6937   32.4768 H   0  0  0  0  0  0  0  0  0  0  0  0
   -1.9088   -2.6117   28.8973 H   0  0  0  0  0  0  0  0  0  0  0  0
    0.1635    1.3753   29.3223 H   0  0  0  0  0  0  0  0  0  0  0  0
  1  2  1  0
  2  3  1  0
  2  4  1  0
  4  5  1  0
  5  6  2  0
  5  7  1  0
  7  8  2  0
  8  9  1  0
  9 10  2  0
 10 11  1  0
 10 12  1  0
 12 13  1  0
 12 14  2  0
 14 15  1  0
 15 16  1  0
 16 17  1  0
 17 18  1  0
 18 19  2  0
 18 20  2  0
 18 21  1  0
 21 22  2  0
 22 23  1  0
 23 24  1  0
 24 25  2  0
  8 26  1  0
 26  2  1  0
 14  7  1  0
 25 21  1  0
  1 27  1  0
  1 28  1  0
  1 29  1  0
  3 30  1  0
  3 31  1  0
  3 32  1  0
  9 33  1  0
 11 34  1  0
 15 35  1  0
 15 36  1  0
 16 37  1  0
 16 38  1  0
 17 39  1  0
 22 40  1  0
 24 41  1  0
M  END
>  <Energy>  (12) 
35.268395752710028

>  <compound_id>  (12) 
162

>  <target_id>  (12) 
1

>  <reference_id>  (12) 
78

>  <inspiration_ids>  (12) 
[197, 78]

>  <energy_score>  (12) 
-61.66958597846883

>  <distance_score>  (12) 
0.30876635644801437

>  <path>  (12) 
/opt/xchem-fragalysis-2/maxwin/BulkDock/SCRATCH/505737/C162-P78/C162-P78.minimised.mol

>  <scratch_subdir>  (12) 
/opt/xchem-fragalysis-2/maxwin/BulkDock/SCRATCH/505737/C162-P78

>  <fragmenstein_runtime>  (12) 
2.5186991691589355

>  <fragmenstein_outcome>  (12) 
acceptable

>  <fragmenstein_mode>  (12) 
expansion

>  <fragmenstein_error>  (12) 


$$$$
C164-P197
     RDKit          3D

 64 67  0  0  0  0  0  0  0  0999 V2000
   -0.4279   -6.6164   35.3916 C   0  0  0  0  0  0  0  0  0  0  0  0
   -0.2838   -6.8166   33.9137 C   0  0  0  0  0  0  0  0  0  0  0  0
   -1.0918   -7.7078   33.2475 C   0  0  0  0  0  0  0  0  0  0  0  0
   -0.8279   -7.8481   31.9135 C   0  0  0  0  0  0  0  0  0  0  0  0
   -1.4051   -8.8374   31.1906 O   0  0  0  0  0  0  0  0  0  0  0  0
    0.0744   -7.1560   31.2204 N   0  0  0  0  0  0  0  0  0  0  0  0
    0.7514   -6.2482   31.9390 C   0  0  0  0  0  0  0  0  0  0  0  0
    1.5991   -5.2691   31.1787 C   0  0  0  0  0  0  0  0  0  0  0  0
    0.7533   -4.0766   30.7358 C   0  0  0  0  0  0  0  0  0  0  0  0
    0.3417   -3.2955   31.8785 N   0  0  0  0  0  0  0  0  0  0  0  0
   -0.8571   -2.1519   31.8701 S   0  0  0  0  0  0  0  0  0  0  0  0
   -0.3901   -1.1816   32.8301 O   0  0  0  0  0  0  0  0  0  0  0  0
   -2.1686   -2.9361   31.8972 N   0  0  0  0  0  0  0  0  0  0  0  0
   -3.3498   -2.2151   32.4129 C   0  0  0  0  0  0  0  0  0  0  0  0
   -3.2341   -1.8315   33.8874 C   0  0  0  0  0  0  0  0  0  0  0  0
   -4.5769   -1.3989   34.4904 C   0  0  0  0  0  0  0  0  0  0  0  0
   -5.6094   -2.3180   34.0996 O   0  0  0  0  0  0  0  0  0  0  0  0
   -4.4863   -1.3648   36.0292 C   0  0  0  0  0  0  0  0  0  0  0  0
   -5.4248   -0.3458   36.6853 C   0  0  0  0  0  0  0  0  0  0  0  0
   -6.6250   -0.1628   35.8730 N   0  0  0  0  0  0  0  0  0  0  0  0
   -7.6171    0.6958   36.5344 C   0  0  0  0  0  0  0  0  0  0  0  0
   -8.6351   -0.1438   37.2424 C   0  0  0  0  0  0  0  0  0  0  0  0
   -9.1018    0.1139   38.5727 C   0  0  0  0  0  0  0  0  0  0  0  0
  -10.1063   -0.7454   38.9568 C   0  0  0  0  0  0  0  0  0  0  0  0
  -10.4858   -1.8771   37.7343 S   0  0  0  0  0  0  0  0  0  0  0  0
   -9.3165   -1.2121   36.6836 C   0  0  0  0  0  0  0  0  0  0  0  0
   -6.2788    0.4490   34.5847 C   0  0  0  0  0  0  0  0  0  0  0  0
   -4.9616   -0.0171   33.9782 C   0  0  0  0  0  0  0  0  0  0  0  0
   -0.9316   -1.3153   30.3434 C   0  0  0  0  0  0  0  0  0  0  0  0
   -1.2705   -1.9254   29.1514 C   0  0  0  0  0  0  0  0  0  0  0  0
   -1.2097   -0.7898   27.8780 S   0  0  0  0  0  0  0  0  0  0  0  0
   -0.7926    0.4314   29.0029 C   0  0  0  0  0  0  0  0  0  0  0  0
   -0.6633    0.0513   30.2536 N   0  0  0  0  0  0  0  0  0  0  0  0
    0.6663   -6.1025   33.2755 N   0  0  0  0  0  0  0  0  0  0  0  0
    0.3341   -5.9261   35.7672 H   0  0  0  0  0  0  0  0  0  0  0  0
   -0.3118   -7.5697   35.9171 H   0  0  0  0  0  0  0  0  0  0  0  0
   -1.4111   -6.1965   35.6215 H   0  0  0  0  0  0  0  0  0  0  0  0
   -1.8356   -8.3079   33.7477 H   0  0  0  0  0  0  0  0  0  0  0  0
   -0.7129   -8.9564   30.5097 H   0  0  0  0  0  0  0  0  0  0  0  0
    2.0147   -5.7604   30.2919 H   0  0  0  0  0  0  0  0  0  0  0  0
    2.4480   -4.9479   31.7941 H   0  0  0  0  0  0  0  0  0  0  0  0
   -0.1201   -4.4406   30.1830 H   0  0  0  0  0  0  0  0  0  0  0  0
    1.3400   -3.4502   30.0549 H   0  0  0  0  0  0  0  0  0  0  0  0
    1.1216   -2.8928   32.3821 H   0  0  0  0  0  0  0  0  0  0  0  0
   -3.4849   -1.3031   31.8269 H   0  0  0  0  0  0  0  0  0  0  0  0
   -4.2204   -2.8508   32.2289 H   0  0  0  0  0  0  0  0  0  0  0  0
   -2.7978   -2.6452   34.4690 H   0  0  0  0  0  0  0  0  0  0  0  0
   -2.5255   -1.0035   34.0084 H   0  0  0  0  0  0  0  0  0  0  0  0
   -6.4064   -2.0480   34.5994 H   0  0  0  0  0  0  0  0  0  0  0  0
   -4.7423   -2.3448   36.4271 H   0  0  0  0  0  0  0  0  0  0  0  0
   -3.4645   -1.1361   36.3564 H   0  0  0  0  0  0  0  0  0  0  0  0
   -5.6829   -0.7095   37.6877 H   0  0  0  0  0  0  0  0  0  0  0  0
   -4.8969    0.6078   36.8221 H   0  0  0  0  0  0  0  0  0  0  0  0
   -8.1843    1.2895   35.8021 H   0  0  0  0  0  0  0  0  0  0  0  0
   -7.1465    1.4188   37.2129 H   0  0  0  0  0  0  0  0  0  0  0  0
   -8.7294    0.9055   39.2122 H   0  0  0  0  0  0  0  0  0  0  0  0
  -10.6354   -0.7651   39.8999 H   0  0  0  0  0  0  0  0  0  0  0  0
   -9.1887   -1.6217   35.6906 H   0  0  0  0  0  0  0  0  0  0  0  0
   -6.2169    1.5396   34.6844 H   0  0  0  0  0  0  0  0  0  0  0  0
   -7.0895    0.1846   33.8981 H   0  0  0  0  0  0  0  0  0  0  0  0
   -4.1723    0.7054   34.2231 H   0  0  0  0  0  0  0  0  0  0  0  0
   -5.0738   -0.0245   32.8915 H   0  0  0  0  0  0  0  0  0  0  0  0
   -1.5517   -2.9536   28.9726 H   0  0  0  0  0  0  0  0  0  0  0  0
   -0.6449    1.4566   28.6924 H   0  0  0  0  0  0  0  0  0  0  0  0
  1  2  1  0
  2  3  2  0
  3  4  1  0
  4  5  1  0
  4  6  2  0
  6  7  1  0
  7  8  1  0
  8  9  1  0
  9 10  1  0
 10 11  1  0
 11 12  2  0
 11 13  2  0
 13 14  1  0
 14 15  1  0
 15 16  1  0
 16 17  1  0
 16 18  1  0
 18 19  1  0
 19 20  1  0
 20 21  1  0
 21 22  1  0
 22 23  1  0
 23 24  2  0
 24 25  1  0
 25 26  1  0
 20 27  1  0
 27 28  1  0
 11 29  1  0
 29 30  2  0
 30 31  1  0
 31 32  1  0
 32 33  2  0
  7 34  2  0
 34  2  1  0
 28 16  1  0
 33 29  1  0
 26 22  2  0
  1 35  1  0
  1 36  1  0
  1 37  1  0
  3 38  1  0
  5 39  1  0
  8 40  1  0
  8 41  1  0
  9 42  1  0
  9 43  1  0
 10 44  1  0
 14 45  1  0
 14 46  1  0
 15 47  1  0
 15 48  1  0
 17 49  1  0
 18 50  1  0
 18 51  1  0
 19 52  1  0
 19 53  1  0
 21 54  1  0
 21 55  1  0
 23 56  1  0
 24 57  1  0
 26 58  1  0
 27 59  1  0
 27 60  1  0
 28 61  1  0
 28 62  1  0
 30 63  1  0
 32 64  1  0
M  END
>  <Energy>  (13) 
-55.357653114612773

>  <compound_id>  (13) 
164

>  <target_id>  (13) 
1

>  <reference_id>  (13) 
197

>  <inspiration_ids>  (13) 
[197, 121]

>  <energy_score>  (13) 
-132.9472541726955

>  <distance_score>  (13) 
0.7080357047846365

>  <path>  (13) 
/opt/xchem-fragalysis-2/maxwin/BulkDock/SCRATCH/505737/C164-P197/C164-P197.minimised.mol

>  <scratch_subdir>  (13) 
/opt/xchem-fragalysis-2/maxwin/BulkDock/SCRATCH/505737/C164-P197

>  <fragmenstein_runtime>  (13) 
5.541192054748535

>  <fragmenstein_outcome>  (13) 
acceptable

>  <fragmenstein_mode>  (13) 
expansion

>  <fragmenstein_error>  (13) 


$$$$
C164-P121
     RDKit          3D

 64 67  0  0  0  0  0  0  0  0999 V2000
   -0.2980   -6.6633   35.2382 C   0  0  0  0  0  0  0  0  0  0  0  0
   -0.3374   -6.5674   33.7569 C   0  0  0  0  0  0  0  0  0  0  0  0
   -1.0907   -7.4533   33.0274 C   0  0  0  0  0  0  0  0  0  0  0  0
   -0.9154   -7.3474   31.6826 C   0  0  0  0  0  0  0  0  0  0  0  0
   -1.4435   -8.2450   30.8311 O   0  0  0  0  0  0  0  0  0  0  0  0
   -0.1375   -6.4795   31.0498 N   0  0  0  0  0  0  0  0  0  0  0  0
    0.5789   -5.6889   31.8495 C   0  0  0  0  0  0  0  0  0  0  0  0
    1.4750   -4.6935   31.1852 C   0  0  0  0  0  0  0  0  0  0  0  0
    0.6671   -3.4653   30.7698 C   0  0  0  0  0  0  0  0  0  0  0  0
    0.0527   -2.8525   31.9300 N   0  0  0  0  0  0  0  0  0  0  0  0
   -0.8348   -1.4503   31.9331 S   0  0  0  0  0  0  0  0  0  0  0  0
   -0.1853   -0.6669   32.9533 O   0  0  0  0  0  0  0  0  0  0  0  0
   -2.2992   -1.8596   31.9070 N   0  0  0  0  0  0  0  0  0  0  0  0
   -2.8201   -2.7034   32.9759 C   0  0  0  0  0  0  0  0  0  0  0  0
   -2.9234   -2.0296   34.3359 C   0  0  0  0  0  0  0  0  0  0  0  0
   -4.3237   -1.4879   34.6567 C   0  0  0  0  0  0  0  0  0  0  0  0
   -5.3218   -2.4603   34.2947 O   0  0  0  0  0  0  0  0  0  0  0  0
   -4.4204   -1.2385   36.1735 C   0  0  0  0  0  0  0  0  0  0  0  0
   -5.5285   -0.2530   36.5585 C   0  0  0  0  0  0  0  0  0  0  0  0
   -6.5614   -0.1803   35.5216 N   0  0  0  0  0  0  0  0  0  0  0  0
   -7.6816    0.6808   35.9340 C   0  0  0  0  0  0  0  0  0  0  0  0
   -8.6246   -0.0757   36.8259 C   0  0  0  0  0  0  0  0  0  0  0  0
   -8.9885    0.3278   38.1539 C   0  0  0  0  0  0  0  0  0  0  0  0
   -9.9295   -0.5022   38.7215 C   0  0  0  0  0  0  0  0  0  0  0  0
  -10.3754   -1.7766   37.6738 S   0  0  0  0  0  0  0  0  0  0  0  0
   -9.3113   -1.2208   36.4591 C   0  0  0  0  0  0  0  0  0  0  0  0
   -5.9877    0.3712   34.2755 C   0  0  0  0  0  0  0  0  0  0  0  0
   -4.6074   -0.1835   33.9202 C   0  0  0  0  0  0  0  0  0  0  0  0
   -0.6855   -0.5759   30.4409 C   0  0  0  0  0  0  0  0  0  0  0  0
   -1.1396   -1.0505   29.2232 C   0  0  0  0  0  0  0  0  0  0  0  0
   -0.9273    0.1510   28.0248 S   0  0  0  0  0  0  0  0  0  0  0  0
   -0.1763    1.1601   29.1796 C   0  0  0  0  0  0  0  0  0  0  0  0
   -0.1064    0.6911   30.4029 N   0  0  0  0  0  0  0  0  0  0  0  0
    0.4996   -5.6739   33.1915 N   0  0  0  0  0  0  0  0  0  0  0  0
   -0.0307   -5.6950   35.6712 H   0  0  0  0  0  0  0  0  0  0  0  0
    0.4562   -7.3996   35.5276 H   0  0  0  0  0  0  0  0  0  0  0  0
   -1.2698   -6.9756   35.6308 H   0  0  0  0  0  0  0  0  0  0  0  0
   -1.7127   -8.2159   33.4672 H   0  0  0  0  0  0  0  0  0  0  0  0
   -0.8206   -8.0650   30.0892 H   0  0  0  0  0  0  0  0  0  0  0  0
    1.9400   -5.1456   30.3031 H   0  0  0  0  0  0  0  0  0  0  0  0
    2.2889   -4.4123   31.8645 H   0  0  0  0  0  0  0  0  0  0  0  0
   -0.1054   -3.7518   30.0472 H   0  0  0  0  0  0  0  0  0  0  0  0
    1.3408   -2.7543   30.2790 H   0  0  0  0  0  0  0  0  0  0  0  0
    0.7285   -2.7348   32.6783 H   0  0  0  0  0  0  0  0  0  0  0  0
   -2.1835   -3.5893   33.0532 H   0  0  0  0  0  0  0  0  0  0  0  0
   -3.8036   -3.0346   32.6402 H   0  0  0  0  0  0  0  0  0  0  0  0
   -2.6867   -2.7910   35.0892 H   0  0  0  0  0  0  0  0  0  0  0  0
   -2.1748   -1.2432   34.4779 H   0  0  0  0  0  0  0  0  0  0  0  0
   -6.1764   -2.0707   34.5766 H   0  0  0  0  0  0  0  0  0  0  0  0
   -4.5907   -2.1872   36.6904 H   0  0  0  0  0  0  0  0  0  0  0  0
   -3.4737   -0.8365   36.5575 H   0  0  0  0  0  0  0  0  0  0  0  0
   -5.9517   -0.5787   37.5164 H   0  0  0  0  0  0  0  0  0  0  0  0
   -5.0893    0.7387   36.7340 H   0  0  0  0  0  0  0  0  0  0  0  0
   -8.2696    0.9886   35.0580 H   0  0  0  0  0  0  0  0  0  0  0  0
   -7.3307    1.6033   36.4142 H   0  0  0  0  0  0  0  0  0  0  0  0
   -8.5884    1.1979   38.6613 H   0  0  0  0  0  0  0  0  0  0  0  0
  -10.3774   -0.4200   39.7026 H   0  0  0  0  0  0  0  0  0  0  0  0
   -9.2456   -1.7463   35.5152 H   0  0  0  0  0  0  0  0  0  0  0  0
   -5.8955    1.4623   34.3380 H   0  0  0  0  0  0  0  0  0  0  0  0
   -6.6753    0.1260   33.4579 H   0  0  0  0  0  0  0  0  0  0  0  0
   -3.8414    0.5601   34.1762 H   0  0  0  0  0  0  0  0  0  0  0  0
   -4.5612   -0.3317   32.8404 H   0  0  0  0  0  0  0  0  0  0  0  0
   -1.6229   -1.9933   29.0039 H   0  0  0  0  0  0  0  0  0  0  0  0
    0.2059    2.1376   28.9131 H   0  0  0  0  0  0  0  0  0  0  0  0
  1  2  1  0
  2  3  2  0
  3  4  1  0
  4  5  1  0
  4  6  2  0
  6  7  1  0
  7  8  1  0
  8  9  1  0
  9 10  1  0
 10 11  1  0
 11 12  2  0
 11 13  2  0
 13 14  1  0
 14 15  1  0
 15 16  1  0
 16 17  1  0
 16 18  1  0
 18 19  1  0
 19 20  1  0
 20 21  1  0
 21 22  1  0
 22 23  1  0
 23 24  2  0
 24 25  1  0
 25 26  1  0
 20 27  1  0
 27 28  1  0
 11 29  1  0
 29 30  2  0
 30 31  1  0
 31 32  1  0
 32 33  2  0
  7 34  2  0
 34  2  1  0
 28 16  1  0
 33 29  1  0
 26 22  2  0
  1 35  1  0
  1 36  1  0
  1 37  1  0
  3 38  1  0
  5 39  1  0
  8 40  1  0
  8 41  1  0
  9 42  1  0
  9 43  1  0
 10 44  1  0
 14 45  1  0
 14 46  1  0
 15 47  1  0
 15 48  1  0
 17 49  1  0
 18 50  1  0
 18 51  1  0
 19 52  1  0
 19 53  1  0
 21 54  1  0
 21 55  1  0
 23 56  1  0
 24 57  1  0
 26 58  1  0
 27 59  1  0
 27 60  1  0
 28 61  1  0
 28 62  1  0
 30 63  1  0
 32 64  1  0
M  END
>  <Energy>  (14) 
-56.738978727006625

>  <compound_id>  (14) 
164

>  <target_id>  (14) 
1

>  <reference_id>  (14) 
121

>  <inspiration_ids>  (14) 
[197, 121]

>  <energy_score>  (14) 
-134.32857978509202

>  <distance_score>  (14) 
0.8217656546666058

>  <path>  (14) 
/opt/xchem-fragalysis-2/maxwin/BulkDock/SCRATCH/505737/C164-P121/C164-P121.minimised.mol

>  <scratch_subdir>  (14) 
/opt/xchem-fragalysis-2/maxwin/BulkDock/SCRATCH/505737/C164-P121

>  <fragmenstein_runtime>  (14) 
5.950000762939453

>  <fragmenstein_outcome>  (14) 
acceptable

>  <fragmenstein_mode>  (14) 
expansion

>  <fragmenstein_error>  (14) 


$$$$
C165-P197
     RDKit          3D

 60 63  0  0  0  0  0  0  0  0999 V2000
    2.3331    1.5731   32.6966 C   0  0  0  0  0  0  0  0  0  0  0  0
    3.3631    0.6132   32.4259 N   0  0  0  0  0  0  0  0  0  0  0  0
    4.0176    0.1885   31.0832 C   0  0  0  0  0  0  0  0  0  0  0  0
    3.8719    0.6101   30.0036 O   0  0  0  0  0  0  0  0  0  0  0  0
    4.9708   -0.9721   31.3996 C   0  0  0  0  0  0  0  0  0  0  0  0
    4.2282   -2.2594   31.6675 C   0  0  0  0  0  0  0  0  0  0  0  0
    4.4033   -2.9678   32.8524 C   0  0  0  0  0  0  0  0  0  0  0  0
    3.6197   -4.0941   33.1004 C   0  0  0  0  0  0  0  0  0  0  0  0
    2.6122   -4.5286   32.1927 C   0  0  0  0  0  0  0  0  0  0  0  0
    1.4241   -5.2622   32.8161 C   0  0  0  0  0  0  0  0  0  0  0  0
    0.2033   -4.3827   33.0689 C   0  0  0  0  0  0  0  0  0  0  0  0
    0.4118   -2.8972   32.8485 C   0  0  0  0  0  0  0  0  0  0  0  0
   -0.7963   -2.1394   33.1494 N   0  0  0  0  0  0  0  0  0  0  0  0
   -1.9639   -2.0046   31.9457 S   0  0  0  0  0  0  0  0  0  0  0  0
   -2.8915   -1.0080   32.4270 O   0  0  0  0  0  0  0  0  0  0  0  0
   -2.3831   -3.3254   31.5263 O   0  0  0  0  0  0  0  0  0  0  0  0
   -1.2269   -1.2597   30.5485 C   0  0  0  0  0  0  0  0  0  0  0  0
   -1.3861   -1.7146   29.2563 C   0  0  0  0  0  0  0  0  0  0  0  0
   -0.5133   -0.7119   28.1806 S   0  0  0  0  0  0  0  0  0  0  0  0
    0.0376    0.2208   29.5102 C   0  0  0  0  0  0  0  0  0  0  0  0
   -0.3794   -0.1575   30.7004 N   0  0  0  0  0  0  0  0  0  0  0  0
   -0.2296   -4.7389   34.4937 C   0  0  0  0  0  0  0  0  0  0  0  0
    0.0966   -6.1317   34.8749 N   0  0  0  0  0  0  0  0  0  0  0  0
    0.1122   -7.0453   33.7689 N   0  0  0  0  0  0  0  0  0  0  0  0
   -1.2516   -7.2530   33.3015 C   0  0  0  0  0  0  0  0  0  0  0  0
   -1.9867   -8.0574   34.1982 O   0  0  0  0  0  0  0  0  0  0  0  0
   -1.0626   -7.8097   31.9260 C   0  0  0  0  0  0  0  0  0  0  0  0
    0.2199   -7.1181   31.4353 C   0  0  0  0  0  0  0  0  0  0  0  0
   -0.0018   -6.1812   30.2697 C   0  0  0  0  0  0  0  0  0  0  0  0
    0.9773   -6.6603   32.6181 N   0  0  0  0  0  0  0  0  0  0  0  0
    2.5606   -3.9019   30.9492 C   0  0  0  0  0  0  0  0  0  0  0  0
    3.3472   -2.7688   30.7025 C   0  0  0  0  0  0  0  0  0  0  0  0
    2.6454    2.1939   33.5387 H   0  0  0  0  0  0  0  0  0  0  0  0
    1.4183    1.0341   32.9539 H   0  0  0  0  0  0  0  0  0  0  0  0
    2.1640    2.1871   31.8095 H   0  0  0  0  0  0  0  0  0  0  0  0
    3.6551   -0.0209   33.1607 H   0  0  0  0  0  0  0  0  0  0  0  0
    5.6456   -1.1137   30.5467 H   0  0  0  0  0  0  0  0  0  0  0  0
    5.6012   -0.6889   32.2510 H   0  0  0  0  0  0  0  0  0  0  0  0
    5.1150   -2.6364   33.6047 H   0  0  0  0  0  0  0  0  0  0  0  0
    3.7263   -4.5668   34.0782 H   0  0  0  0  0  0  0  0  0  0  0  0
    1.9075   -5.3956   33.7939 H   0  0  0  0  0  0  0  0  0  0  0  0
   -0.6120   -4.6776   32.4128 H   0  0  0  0  0  0  0  0  0  0  0  0
    0.6965   -2.6508   31.8278 H   0  0  0  0  0  0  0  0  0  0  0  0
    1.1979   -2.5114   33.5082 H   0  0  0  0  0  0  0  0  0  0  0  0
   -0.6097   -1.1985   33.5032 H   0  0  0  0  0  0  0  0  0  0  0  0
   -1.9646   -2.5527   28.8944 H   0  0  0  0  0  0  0  0  0  0  0  0
    0.7038    1.0630   29.3657 H   0  0  0  0  0  0  0  0  0  0  0  0
   -1.2914   -4.5459   34.6325 H   0  0  0  0  0  0  0  0  0  0  0  0
    0.2844   -4.0911   35.2150 H   0  0  0  0  0  0  0  0  0  0  0  0
   -0.5504   -6.4465   35.6040 H   0  0  0  0  0  0  0  0  0  0  0  0
   -1.7914   -6.3130   33.2018 H   0  0  0  0  0  0  0  0  0  0  0  0
   -1.4372   -8.8485   34.3841 H   0  0  0  0  0  0  0  0  0  0  0  0
   -1.9273   -7.6065   31.2926 H   0  0  0  0  0  0  0  0  0  0  0  0
   -0.9429   -8.8959   31.9545 H   0  0  0  0  0  0  0  0  0  0  0  0
    0.7855   -7.9250   30.9762 H   0  0  0  0  0  0  0  0  0  0  0  0
   -0.4479   -5.2218   30.5214 H   0  0  0  0  0  0  0  0  0  0  0  0
   -0.6769   -6.6711   29.5683 H   0  0  0  0  0  0  0  0  0  0  0  0
    0.9375   -6.0071   29.7400 H   0  0  0  0  0  0  0  0  0  0  0  0
    1.8121   -4.1590   30.2085 H   0  0  0  0  0  0  0  0  0  0  0  0
    3.2247   -2.2502   29.7501 H   0  0  0  0  0  0  0  0  0  0  0  0
  1  2  1  0
  2  3  1  0
  3  4  2  0
  3  5  1  0
  5  6  1  0
  6  7  2  0
  7  8  1  0
  8  9  2  0
  9 10  1  0
 10 11  1  0
 11 12  1  0
 12 13  1  0
 13 14  1  0
 14 15  2  0
 14 16  2  0
 14 17  1  0
 17 18  2  0
 18 19  1  0
 19 20  1  0
 20 21  2  0
 11 22  1  0
 22 23  1  0
 23 24  1  0
 24 25  1  0
 25 26  1  0
 25 27  1  0
 27 28  1  0
 28 29  1  0
 28 30  1  0
  9 31  1  0
 31 32  2  0
 32  6  1  0
 30 10  1  0
 21 17  1  0
 30 24  1  0
  1 33  1  0
  1 34  1  0
  1 35  1  0
  2 36  1  0
  5 37  1  0
  5 38  1  0
  7 39  1  0
  8 40  1  0
 10 41  1  0
 11 42  1  0
 12 43  1  0
 12 44  1  0
 13 45  1  0
 18 46  1  0
 20 47  1  0
 22 48  1  0
 22 49  1  0
 23 50  1  0
 25 51  1  0
 26 52  1  0
 27 53  1  0
 27 54  1  0
 28 55  1  0
 29 56  1  0
 29 57  1  0
 29 58  1  0
 31 59  1  0
 32 60  1  0
M  END
>  <Energy>  (15) 
92.127758314288414

>  <compound_id>  (15) 
165

>  <target_id>  (15) 
1

>  <reference_id>  (15) 
197

>  <inspiration_ids>  (15) 
[197, 128]

>  <energy_score>  (15) 
-83.16318821786606

>  <distance_score>  (15) 
2.1359415784227895

>  <path>  (15) 
/opt/xchem-fragalysis-2/maxwin/BulkDock/SCRATCH/505737/C165-P197/C165-P197.minimised.mol

>  <scratch_subdir>  (15) 
/opt/xchem-fragalysis-2/maxwin/BulkDock/SCRATCH/505737/C165-P197

>  <fragmenstein_runtime>  (15) 
8.78529167175293

>  <fragmenstein_outcome>  (15) 
too moved

>  <fragmenstein_mode>  (15) 
expansion

>  <fragmenstein_error>  (15) 


$$$$
C165-P128
     RDKit          3D

 60 63  0  0  0  0  0  0  0  0999 V2000
    4.4335    1.7474   34.3247 C   0  0  0  0  0  0  0  0  0  0  0  0
    4.8022    0.3976   34.6372 N   0  0  0  0  0  0  0  0  0  0  0  0
    5.9748   -0.4741   34.1121 C   0  0  0  0  0  0  0  0  0  0  0  0
    6.8628   -0.2009   33.4044 O   0  0  0  0  0  0  0  0  0  0  0  0
    5.8119   -1.8639   34.7312 C   0  0  0  0  0  0  0  0  0  0  0  0
    4.6550   -2.6402   34.1487 C   0  0  0  0  0  0  0  0  0  0  0  0
    3.6745   -3.1856   34.9793 C   0  0  0  0  0  0  0  0  0  0  0  0
    2.5879   -3.8641   34.4286 C   0  0  0  0  0  0  0  0  0  0  0  0
    2.4548   -4.0148   33.0364 C   0  0  0  0  0  0  0  0  0  0  0  0
    1.0780   -4.3525   32.4909 C   0  0  0  0  0  0  0  0  0  0  0  0
    0.7804   -4.0239   31.0296 C   0  0  0  0  0  0  0  0  0  0  0  0
    0.8570   -2.5306   30.7664 C   0  0  0  0  0  0  0  0  0  0  0  0
    0.1914   -1.7787   31.8414 N   0  0  0  0  0  0  0  0  0  0  0  0
   -1.3645   -1.1968   31.6016 S   0  0  0  0  0  0  0  0  0  0  0  0
   -1.6133   -0.2410   32.6543 O   0  0  0  0  0  0  0  0  0  0  0  0
   -2.2798   -2.2856   31.3461 O   0  0  0  0  0  0  0  0  0  0  0  0
   -1.2269   -0.2855   30.1242 C   0  0  0  0  0  0  0  0  0  0  0  0
   -1.5603   -0.7714   28.8754 C   0  0  0  0  0  0  0  0  0  0  0  0
   -1.1223    0.3738   27.6813 S   0  0  0  0  0  0  0  0  0  0  0  0
   -0.4343    1.3622   28.8923 C   0  0  0  0  0  0  0  0  0  0  0  0
   -0.4864    0.8941   30.1189 N   0  0  0  0  0  0  0  0  0  0  0  0
   -0.6162   -4.5191   30.6749 C   0  0  0  0  0  0  0  0  0  0  0  0
   -1.5031   -4.8343   31.8129 N   0  0  0  0  0  0  0  0  0  0  0  0
   -0.9036   -5.4670   32.9563 N   0  0  0  0  0  0  0  0  0  0  0  0
   -1.4319   -6.7981   33.2609 C   0  0  0  0  0  0  0  0  0  0  0  0
   -1.9274   -6.8491   34.5848 O   0  0  0  0  0  0  0  0  0  0  0  0
   -0.2404   -7.7022   33.1658 C   0  0  0  0  0  0  0  0  0  0  0  0
    0.7332   -6.9094   32.3150 C   0  0  0  0  0  0  0  0  0  0  0  0
    0.4284   -7.2337   30.8451 C   0  0  0  0  0  0  0  0  0  0  0  0
    0.4879   -5.6073   32.8954 N   0  0  0  0  0  0  0  0  0  0  0  0
    3.5017   -3.5740   32.2234 C   0  0  0  0  0  0  0  0  0  0  0  0
    4.5728   -2.8671   32.7705 C   0  0  0  0  0  0  0  0  0  0  0  0
    4.2035    2.2718   35.2544 H   0  0  0  0  0  0  0  0  0  0  0  0
    3.5488    1.7241   33.6844 H   0  0  0  0  0  0  0  0  0  0  0  0
    5.2565    2.2383   33.8011 H   0  0  0  0  0  0  0  0  0  0  0  0
    4.1613   -0.1812   35.1691 H   0  0  0  0  0  0  0  0  0  0  0  0
    6.7380   -2.4291   34.5691 H   0  0  0  0  0  0  0  0  0  0  0  0
    5.7076   -1.7471   35.8169 H   0  0  0  0  0  0  0  0  0  0  0  0
    3.7240   -3.0606   36.0589 H   0  0  0  0  0  0  0  0  0  0  0  0
    1.7889   -4.2038   35.0882 H   0  0  0  0  0  0  0  0  0  0  0  0
    0.5027   -3.6231   33.0836 H   0  0  0  0  0  0  0  0  0  0  0  0
    1.4975   -4.5198   30.3648 H   0  0  0  0  0  0  0  0  0  0  0  0
    0.4676   -2.2912   29.7748 H   0  0  0  0  0  0  0  0  0  0  0  0
    1.8922   -2.1795   30.7281 H   0  0  0  0  0  0  0  0  0  0  0  0
    0.7647   -1.0288   32.2395 H   0  0  0  0  0  0  0  0  0  0  0  0
   -2.0219   -1.7089   28.5986 H   0  0  0  0  0  0  0  0  0  0  0  0
    0.0249    2.3135   28.6520 H   0  0  0  0  0  0  0  0  0  0  0  0
   -0.5513   -5.3370   29.9650 H   0  0  0  0  0  0  0  0  0  0  0  0
   -1.1267   -3.7940   30.0318 H   0  0  0  0  0  0  0  0  0  0  0  0
   -1.8595   -3.9197   32.1347 H   0  0  0  0  0  0  0  0  0  0  0  0
   -2.1799   -7.1479   32.5489 H   0  0  0  0  0  0  0  0  0  0  0  0
   -1.8092   -5.9225   34.8734 H   0  0  0  0  0  0  0  0  0  0  0  0
   -0.5501   -8.6391   32.7024 H   0  0  0  0  0  0  0  0  0  0  0  0
    0.1791   -7.8905   34.1619 H   0  0  0  0  0  0  0  0  0  0  0  0
    1.7632   -7.1415   32.5561 H   0  0  0  0  0  0  0  0  0  0  0  0
   -0.6356   -7.1539   30.6042 H   0  0  0  0  0  0  0  0  0  0  0  0
    0.6267   -8.2702   30.5972 H   0  0  0  0  0  0  0  0  0  0  0  0
    1.0353   -6.6420   30.1583 H   0  0  0  0  0  0  0  0  0  0  0  0
    3.4839   -3.7075   31.1463 H   0  0  0  0  0  0  0  0  0  0  0  0
    5.3524   -2.4906   32.1083 H   0  0  0  0  0  0  0  0  0  0  0  0
  1  2  1  0
  2  3  1  0
  3  4  2  0
  3  5  1  0
  5  6  1  0
  6  7  2  0
  7  8  1  0
  8  9  2  0
  9 10  1  0
 10 11  1  0
 11 12  1  0
 12 13  1  0
 13 14  1  0
 14 15  2  0
 14 16  2  0
 14 17  1  0
 17 18  2  0
 18 19  1  0
 19 20  1  0
 20 21  2  0
 11 22  1  0
 22 23  1  0
 23 24  1  0
 24 25  1  0
 25 26  1  0
 25 27  1  0
 27 28  1  0
 28 29  1  0
 28 30  1  0
  9 31  1  0
 31 32  2  0
 32  6  1  0
 30 10  1  0
 21 17  1  0
 30 24  1  0
  1 33  1  0
  1 34  1  0
  1 35  1  0
  2 36  1  0
  5 37  1  0
  5 38  1  0
  7 39  1  0
  8 40  1  0
 10 41  1  0
 11 42  1  0
 12 43  1  0
 12 44  1  0
 13 45  1  0
 18 46  1  0
 20 47  1  0
 22 48  1  0
 22 49  1  0
 23 50  1  0
 25 51  1  0
 26 52  1  0
 27 53  1  0
 27 54  1  0
 28 55  1  0
 29 56  1  0
 29 57  1  0
 29 58  1  0
 31 59  1  0
 32 60  1  0
M  END
>  <Energy>  (16) 
95.401735162287807

>  <compound_id>  (16) 
165

>  <target_id>  (16) 
1

>  <reference_id>  (16) 
128

>  <inspiration_ids>  (16) 
[197, 128]

>  <energy_score>  (16) 
-79.8892113698681

>  <distance_score>  (16) 
1.8108927893362239

>  <path>  (16) 
/opt/xchem-fragalysis-2/maxwin/BulkDock/SCRATCH/505737/C165-P128/C165-P128.minimised.mol

>  <scratch_subdir>  (16) 
/opt/xchem-fragalysis-2/maxwin/BulkDock/SCRATCH/505737/C165-P128

>  <fragmenstein_runtime>  (16) 
6.063221454620361

>  <fragmenstein_outcome>  (16) 
too moved

>  <fragmenstein_mode>  (16) 
expansion

>  <fragmenstein_error>  (16) 


$$$$
C166-P197
     RDKit          3D

 58 61  0  0  0  0  0  0  0  0999 V2000
   -0.3836   -3.9389   34.3698 C   0  0  0  0  0  0  0  0  0  0  0  0
    0.0292   -5.3922   34.2485 C   0  0  0  0  0  0  0  0  0  0  0  0
   -1.1997   -6.2774   34.3577 C   0  0  0  0  0  0  0  0  0  0  0  0
   -0.6782   -7.6145   33.9624 C   0  0  0  0  0  0  0  0  0  0  0  0
    0.0657   -8.0527   35.0816 O   0  0  0  0  0  0  0  0  0  0  0  0
    0.1987   -7.2772   32.8128 N   0  0  0  0  0  0  0  0  0  0  0  0
   -0.6117   -7.2616   31.6124 N   0  0  0  0  0  0  0  0  0  0  0  0
    0.1321   -6.6991   30.4918 C   0  0  0  0  0  0  0  0  0  0  0  0
    0.7179   -5.2969   30.7669 C   0  0  0  0  0  0  0  0  0  0  0  0
   -0.4150   -4.2793   30.7438 C   0  0  0  0  0  0  0  0  0  0  0  0
   -0.2130   -3.0761   31.5440 N   0  0  0  0  0  0  0  0  0  0  0  0
   -1.5442   -2.0410   31.6634 S   0  0  0  0  0  0  0  0  0  0  0  0
   -2.7458   -2.8306   31.4935 O   0  0  0  0  0  0  0  0  0  0  0  0
   -1.3280   -1.1578   32.7843 O   0  0  0  0  0  0  0  0  0  0  0  0
   -1.3998   -1.0410   30.2489 C   0  0  0  0  0  0  0  0  0  0  0  0
   -1.6447   -1.5284   28.9840 C   0  0  0  0  0  0  0  0  0  0  0  0
   -1.1738   -0.3828   27.8281 S   0  0  0  0  0  0  0  0  0  0  0  0
   -0.7038    0.6854   29.0784 C   0  0  0  0  0  0  0  0  0  0  0  0
   -0.8180    0.2231   30.3022 N   0  0  0  0  0  0  0  0  0  0  0  0
    1.5359   -5.3690   32.0664 C   0  0  0  0  0  0  0  0  0  0  0  0
    2.4224   -4.1609   32.3822 C   0  0  0  0  0  0  0  0  0  0  0  0
    2.8337   -3.2447   31.3933 C   0  0  0  0  0  0  0  0  0  0  0  0
    3.5808   -2.1119   31.7169 C   0  0  0  0  0  0  0  0  0  0  0  0
    4.0031   -1.9138   33.0261 C   0  0  0  0  0  0  0  0  0  0  0  0
    3.7310   -2.8728   34.0005 C   0  0  0  0  0  0  0  0  0  0  0  0
    4.1529   -2.5891   35.3294 N   0  0  0  0  0  0  0  0  0  0  0  0
    4.3398   -3.7637   36.5065 S   0  0  0  0  0  0  0  0  0  0  0  0
    2.7193   -3.7862   37.2463 C   0  0  0  0  0  0  0  0  0  0  0  0
    5.2457   -3.1880   37.4774 O   0  0  0  0  0  0  0  0  0  0  0  0
    4.6130   -5.0474   35.8993 O   0  0  0  0  0  0  0  0  0  0  0  0
    2.9405   -3.9771   33.6705 C   0  0  0  0  0  0  0  0  0  0  0  0
    0.7361   -5.9743   33.1246 N   0  0  0  0  0  0  0  0  0  0  0  0
   -1.2477   -3.7246   33.7469 H   0  0  0  0  0  0  0  0  0  0  0  0
    0.4198   -3.2372   34.1489 H   0  0  0  0  0  0  0  0  0  0  0  0
   -0.6989   -3.7321   35.4002 H   0  0  0  0  0  0  0  0  0  0  0  0
    0.6611   -5.5786   35.1275 H   0  0  0  0  0  0  0  0  0  0  0  0
   -1.9242   -5.9621   33.6176 H   0  0  0  0  0  0  0  0  0  0  0  0
   -1.6235   -6.2577   35.3662 H   0  0  0  0  0  0  0  0  0  0  0  0
   -1.4679   -8.3331   33.7321 H   0  0  0  0  0  0  0  0  0  0  0  0
    0.9748   -7.7897   34.8606 H   0  0  0  0  0  0  0  0  0  0  0  0
   -1.4759   -6.7431   31.7603 H   0  0  0  0  0  0  0  0  0  0  0  0
   -0.5566   -6.6482   29.6484 H   0  0  0  0  0  0  0  0  0  0  0  0
    0.9090   -7.3964   30.1815 H   0  0  0  0  0  0  0  0  0  0  0  0
    1.3864   -5.0778   29.9250 H   0  0  0  0  0  0  0  0  0  0  0  0
   -0.6086   -4.0124   29.7012 H   0  0  0  0  0  0  0  0  0  0  0  0
   -1.3133   -4.7517   31.1405 H   0  0  0  0  0  0  0  0  0  0  0  0
    0.6177   -2.5126   31.3704 H   0  0  0  0  0  0  0  0  0  0  0  0
   -2.0508   -2.4840   28.6905 H   0  0  0  0  0  0  0  0  0  0  0  0
   -0.3163    1.6730   28.8662 H   0  0  0  0  0  0  0  0  0  0  0  0
    2.3098   -6.1187   31.8607 H   0  0  0  0  0  0  0  0  0  0  0  0
    2.5588   -3.3714   30.3496 H   0  0  0  0  0  0  0  0  0  0  0  0
    3.8435   -1.3896   30.9475 H   0  0  0  0  0  0  0  0  0  0  0  0
    4.5734   -1.0210   33.2676 H   0  0  0  0  0  0  0  0  0  0  0  0
    4.8002   -1.8127   35.4678 H   0  0  0  0  0  0  0  0  0  0  0  0
    2.4864   -2.7854   37.6153 H   0  0  0  0  0  0  0  0  0  0  0  0
    1.9809   -4.1121   36.5163 H   0  0  0  0  0  0  0  0  0  0  0  0
    2.7445   -4.4896   38.0817 H   0  0  0  0  0  0  0  0  0  0  0  0
    2.7080   -4.7242   34.4194 H   0  0  0  0  0  0  0  0  0  0  0  0
  1  2  1  0
  2  3  1  0
  3  4  1  0
  4  5  1  0
  4  6  1  0
  6  7  1  0
  7  8  1  0
  8  9  1  0
  9 10  1  0
 10 11  1  0
 11 12  1  0
 12 13  2  0
 12 14  2  0
 12 15  1  0
 15 16  2  0
 16 17  1  0
 17 18  1  0
 18 19  2  0
  9 20  1  0
 20 21  1  0
 21 22  2  0
 22 23  1  0
 23 24  2  0
 24 25  1  0
 25 26  1  0
 26 27  1  0
 27 28  1  0
 27 29  2  0
 27 30  2  0
 25 31  2  0
 20 32  1  0
 32  2  1  0
 32  6  1  0
 19 15  1  0
 31 21  1  0
  1 33  1  0
  1 34  1  0
  1 35  1  0
  2 36  1  0
  3 37  1  0
  3 38  1  0
  4 39  1  0
  5 40  1  0
  7 41  1  0
  8 42  1  0
  8 43  1  0
  9 44  1  0
 10 45  1  0
 10 46  1  0
 11 47  1  0
 16 48  1  0
 18 49  1  0
 20 50  1  0
 22 51  1  0
 23 52  1  0
 24 53  1  0
 26 54  1  0
 28 55  1  0
 28 56  1  0
 28 57  1  0
 31 58  1  0
M  END
>  <Energy>  (17) 
10.682728477203863

>  <compound_id>  (17) 
166

>  <target_id>  (17) 
1

>  <reference_id>  (17) 
197

>  <inspiration_ids>  (17) 
[197, 129]

>  <energy_score>  (17) 
-92.53765170173156

>  <distance_score>  (17) 
1.1809537546569235

>  <path>  (17) 
/opt/xchem-fragalysis-2/maxwin/BulkDock/SCRATCH/505737/C166-P197/C166-P197.minimised.mol

>  <scratch_subdir>  (17) 
/opt/xchem-fragalysis-2/maxwin/BulkDock/SCRATCH/505737/C166-P197

>  <fragmenstein_runtime>  (17) 
8.984562873840332

>  <fragmenstein_outcome>  (17) 
too moved

>  <fragmenstein_mode>  (17) 
expansion

>  <fragmenstein_error>  (17) 


$$$$
C166-P129
     RDKit          3D

 58 61  0  0  0  0  0  0  0  0999 V2000
   -1.2609   -7.1852   31.7504 C   0  0  0  0  0  0  0  0  0  0  0  0
   -1.2151   -6.5263   33.1329 C   0  0  0  0  0  0  0  0  0  0  0  0
   -1.0203   -7.6562   34.1269 C   0  0  0  0  0  0  0  0  0  0  0  0
    0.3241   -7.3460   34.7526 C   0  0  0  0  0  0  0  0  0  0  0  0
    0.0602   -6.9287   36.0899 O   0  0  0  0  0  0  0  0  0  0  0  0
    0.9051   -6.2615   33.9266 N   0  0  0  0  0  0  0  0  0  0  0  0
    1.5563   -6.7523   32.7341 N   0  0  0  0  0  0  0  0  0  0  0  0
    1.8252   -5.7028   31.7248 C   0  0  0  0  0  0  0  0  0  0  0  0
    0.7124   -4.6961   31.5056 C   0  0  0  0  0  0  0  0  0  0  0  0
    1.1794   -3.5124   30.6766 C   0  0  0  0  0  0  0  0  0  0  0  0
    0.0660   -2.9701   29.9153 N   0  0  0  0  0  0  0  0  0  0  0  0
   -1.0485   -1.9385   30.6232 S   0  0  0  0  0  0  0  0  0  0  0  0
   -2.2839   -2.6810   30.7291 O   0  0  0  0  0  0  0  0  0  0  0  0
   -0.4811   -1.2520   31.7500 O   0  0  0  0  0  0  0  0  0  0  0  0
   -1.2586   -0.6635   29.4719 C   0  0  0  0  0  0  0  0  0  0  0  0
   -1.6408   -0.8751   28.1679 C   0  0  0  0  0  0  0  0  0  0  0  0
   -1.4821    0.5866   27.2851 S   0  0  0  0  0  0  0  0  0  0  0  0
   -0.9198    1.3726   28.6884 C   0  0  0  0  0  0  0  0  0  0  0  0
   -0.8325    0.6322   29.7674 N   0  0  0  0  0  0  0  0  0  0  0  0
    0.1004   -4.3269   32.8552 C   0  0  0  0  0  0  0  0  0  0  0  0
    0.9994   -3.3482   33.6529 C   0  0  0  0  0  0  0  0  0  0  0  0
    0.4872   -2.1045   34.0185 C   0  0  0  0  0  0  0  0  0  0  0  0
    1.3150   -1.0553   34.4276 C   0  0  0  0  0  0  0  0  0  0  0  0
    2.6588   -1.2793   34.6668 C   0  0  0  0  0  0  0  0  0  0  0  0
    3.1435   -2.5687   34.5333 C   0  0  0  0  0  0  0  0  0  0  0  0
    4.4203   -2.8651   35.0823 N   0  0  0  0  0  0  0  0  0  0  0  0
    4.4908   -4.0605   36.2716 S   0  0  0  0  0  0  0  0  0  0  0  0
    2.9601   -3.9147   37.1934 C   0  0  0  0  0  0  0  0  0  0  0  0
    5.5671   -3.6428   37.1464 O   0  0  0  0  0  0  0  0  0  0  0  0
    4.5275   -5.3496   35.6118 O   0  0  0  0  0  0  0  0  0  0  0  0
    2.3461   -3.5722   33.9784 C   0  0  0  0  0  0  0  0  0  0  0  0
   -0.2272   -5.5420   33.5762 N   0  0  0  0  0  0  0  0  0  0  0  0
   -2.1051   -7.8827   31.7033 H   0  0  0  0  0  0  0  0  0  0  0  0
   -0.3698   -7.7697   31.5078 H   0  0  0  0  0  0  0  0  0  0  0  0
   -1.4076   -6.4711   30.9594 H   0  0  0  0  0  0  0  0  0  0  0  0
   -2.1588   -6.0637   33.3295 H   0  0  0  0  0  0  0  0  0  0  0  0
   -0.9924   -8.6033   33.5982 H   0  0  0  0  0  0  0  0  0  0  0  0
   -1.8352   -7.6836   34.8595 H   0  0  0  0  0  0  0  0  0  0  0  0
    1.0199   -8.1777   34.8390 H   0  0  0  0  0  0  0  0  0  0  0  0
   -0.2825   -7.7168   36.5481 H   0  0  0  0  0  0  0  0  0  0  0  0
    2.4686   -7.0840   33.0395 H   0  0  0  0  0  0  0  0  0  0  0  0
    1.9905   -6.1882   30.7599 H   0  0  0  0  0  0  0  0  0  0  0  0
    2.7735   -5.2035   31.9435 H   0  0  0  0  0  0  0  0  0  0  0  0
   -0.0404   -5.1867   30.8935 H   0  0  0  0  0  0  0  0  0  0  0  0
    1.6908   -2.7269   31.2375 H   0  0  0  0  0  0  0  0  0  0  0  0
    1.9093   -3.8546   29.9312 H   0  0  0  0  0  0  0  0  0  0  0  0
   -0.3761   -3.5866   29.2309 H   0  0  0  0  0  0  0  0  0  0  0  0
   -1.9780   -1.7837   27.6920 H   0  0  0  0  0  0  0  0  0  0  0  0
   -0.6580    2.4236   28.6813 H   0  0  0  0  0  0  0  0  0  0  0  0
   -0.8530   -3.8187   32.6838 H   0  0  0  0  0  0  0  0  0  0  0  0
   -0.5801   -1.9059   33.9256 H   0  0  0  0  0  0  0  0  0  0  0  0
    0.8818   -0.0732   34.6017 H   0  0  0  0  0  0  0  0  0  0  0  0
    3.2736   -0.4720   35.0505 H   0  0  0  0  0  0  0  0  0  0  0  0
    4.9778   -2.0595   35.3685 H   0  0  0  0  0  0  0  0  0  0  0  0
    2.1214   -4.2753   36.5994 H   0  0  0  0  0  0  0  0  0  0  0  0
    3.0592   -4.5434   38.0822 H   0  0  0  0  0  0  0  0  0  0  0  0
    2.8263   -2.8763   37.5018 H   0  0  0  0  0  0  0  0  0  0  0  0
    2.7898   -4.5524   33.8693 H   0  0  0  0  0  0  0  0  0  0  0  0
  1  2  1  0
  2  3  1  0
  3  4  1  0
  4  5  1  0
  4  6  1  0
  6  7  1  0
  7  8  1  0
  8  9  1  0
  9 10  1  0
 10 11  1  0
 11 12  1  0
 12 13  2  0
 12 14  2  0
 12 15  1  0
 15 16  2  0
 16 17  1  0
 17 18  1  0
 18 19  2  0
  9 20  1  0
 20 21  1  0
 21 22  2  0
 22 23  1  0
 23 24  2  0
 24 25  1  0
 25 26  1  0
 26 27  1  0
 27 28  1  0
 27 29  2  0
 27 30  2  0
 25 31  2  0
 20 32  1  0
 32  2  1  0
 32  6  1  0
 19 15  1  0
 31 21  1  0
  1 33  1  0
  1 34  1  0
  1 35  1  0
  2 36  1  0
  3 37  1  0
  3 38  1  0
  4 39  1  0
  5 40  1  0
  7 41  1  0
  8 42  1  0
  8 43  1  0
  9 44  1  0
 10 45  1  0
 10 46  1  0
 11 47  1  0
 16 48  1  0
 18 49  1  0
 20 50  1  0
 22 51  1  0
 23 52  1  0
 24 53  1  0
 26 54  1  0
 28 55  1  0
 28 56  1  0
 28 57  1  0
 31 58  1  0
M  END
>  <Energy>  (18) 
25.289499131524749

>  <compound_id>  (18) 
166

>  <target_id>  (18) 
1

>  <reference_id>  (18) 
129

>  <inspiration_ids>  (18) 
[197, 129]

>  <energy_score>  (18) 
-77.93088104741435

>  <distance_score>  (18) 
1.6524187633964629

>  <path>  (18) 
/opt/xchem-fragalysis-2/maxwin/BulkDock/SCRATCH/505737/C166-P129/C166-P129.minimised.mol

>  <scratch_subdir>  (18) 
/opt/xchem-fragalysis-2/maxwin/BulkDock/SCRATCH/505737/C166-P129

>  <fragmenstein_runtime>  (18) 
4.469232559204102

>  <fragmenstein_outcome>  (18) 
too moved

>  <fragmenstein_mode>  (18) 
expansion

>  <fragmenstein_error>  (18) 


$$$$
C172-P197
     RDKit          3D

 57 60  0  0  0  0  0  0  0  0999 V2000
    5.4002    0.0109   36.8099 C   0  0  0  0  0  0  0  0  0  0  0  0
    4.8454   -0.9032   35.8553 N   0  0  0  0  0  0  0  0  0  0  0  0
    5.3722   -1.3568   34.4827 C   0  0  0  0  0  0  0  0  0  0  0  0
    6.3767   -1.1194   33.9436 O   0  0  0  0  0  0  0  0  0  0  0  0
    4.4014   -2.2637   33.8069 C   0  0  0  0  0  0  0  0  0  0  0  0
    3.8195   -3.3417   34.4804 C   0  0  0  0  0  0  0  0  0  0  0  0
    2.9146   -4.1771   33.8187 C   0  0  0  0  0  0  0  0  0  0  0  0
    2.5788   -3.9406   32.4776 C   0  0  0  0  0  0  0  0  0  0  0  0
    1.4051   -4.6304   31.7798 C   0  0  0  0  0  0  0  0  0  0  0  0
    0.3341   -3.5411   31.4938 C   0  0  0  0  0  0  0  0  0  0  0  0
    0.1588   -2.5063   32.6470 C   0  0  0  0  0  0  0  0  0  0  0  0
   -1.2156   -2.2365   33.0700 N   0  0  0  0  0  0  0  0  0  0  0  0
   -2.2607   -1.4375   32.0541 S   0  0  0  0  0  0  0  0  0  0  0  0
   -3.2017   -2.4423   31.6023 O   0  0  0  0  0  0  0  0  0  0  0  0
   -2.7091   -0.2520   32.7465 O   0  0  0  0  0  0  0  0  0  0  0  0
   -1.4491   -0.8395   30.6153 C   0  0  0  0  0  0  0  0  0  0  0  0
   -1.5710   -1.3961   29.3555 C   0  0  0  0  0  0  0  0  0  0  0  0
   -0.6282   -0.5233   28.2282 S   0  0  0  0  0  0  0  0  0  0  0  0
   -0.1204    0.5216   29.4849 C   0  0  0  0  0  0  0  0  0  0  0  0
   -0.5637    0.2391   30.6897 N   0  0  0  0  0  0  0  0  0  0  0  0
   -0.8930   -4.3423   31.1570 C   0  0  0  0  0  0  0  0  0  0  0  0
   -1.4037   -5.0329   32.3451 N   0  0  0  0  0  0  0  0  0  0  0  0
   -0.3377   -5.4645   33.2433 N   0  0  0  0  0  0  0  0  0  0  0  0
   -0.6583   -6.7816   33.8583 C   0  0  0  0  0  0  0  0  0  0  0  0
   -1.8710   -6.7939   34.5527 O   0  0  0  0  0  0  0  0  0  0  0  0
   -0.6453   -7.6849   32.6499 C   0  0  0  0  0  0  0  0  0  0  0  0
    0.5044   -7.0671   31.8426 C   0  0  0  0  0  0  0  0  0  0  0  0
    0.2870   -7.2590   30.3505 C   0  0  0  0  0  0  0  0  0  0  0  0
    0.8147   -5.7798   32.4902 N   0  0  0  0  0  0  0  0  0  0  0  0
    3.2197   -2.8840   31.7967 C   0  0  0  0  0  0  0  0  0  0  0  0
    4.1086   -2.0415   32.4600 C   0  0  0  0  0  0  0  0  0  0  0  0
    6.3440    0.4089   36.4310 H   0  0  0  0  0  0  0  0  0  0  0  0
    5.5661   -0.5243   37.7474 H   0  0  0  0  0  0  0  0  0  0  0  0
    4.6864    0.8217   36.9700 H   0  0  0  0  0  0  0  0  0  0  0  0
    3.9645   -1.3638   36.0482 H   0  0  0  0  0  0  0  0  0  0  0  0
    4.0746   -3.5521   35.5162 H   0  0  0  0  0  0  0  0  0  0  0  0
    2.4364   -4.9783   34.3781 H   0  0  0  0  0  0  0  0  0  0  0  0
    1.8133   -4.9921   30.8279 H   0  0  0  0  0  0  0  0  0  0  0  0
    0.6358   -2.9872   30.5954 H   0  0  0  0  0  0  0  0  0  0  0  0
    0.6409   -2.8397   33.5701 H   0  0  0  0  0  0  0  0  0  0  0  0
    0.6554   -1.5637   32.3906 H   0  0  0  0  0  0  0  0  0  0  0  0
   -1.6701   -3.0844   33.4384 H   0  0  0  0  0  0  0  0  0  0  0  0
   -2.1547   -2.2440   29.0289 H   0  0  0  0  0  0  0  0  0  0  0  0
    0.5431    1.3550   29.2920 H   0  0  0  0  0  0  0  0  0  0  0  0
   -1.6719   -3.7431   30.7122 H   0  0  0  0  0  0  0  0  0  0  0  0
   -0.6467   -5.0193   30.3426 H   0  0  0  0  0  0  0  0  0  0  0  0
   -1.9594   -5.8323   32.0484 H   0  0  0  0  0  0  0  0  0  0  0  0
    0.1314   -7.0590   34.5694 H   0  0  0  0  0  0  0  0  0  0  0  0
   -2.0048   -5.8350   34.7147 H   0  0  0  0  0  0  0  0  0  0  0  0
   -1.5999   -7.6915   32.1113 H   0  0  0  0  0  0  0  0  0  0  0  0
   -0.4928   -8.7140   32.9226 H   0  0  0  0  0  0  0  0  0  0  0  0
    1.3940   -7.5783   32.1131 H   0  0  0  0  0  0  0  0  0  0  0  0
    0.4152   -8.3109   30.0778 H   0  0  0  0  0  0  0  0  0  0  0  0
   -0.7273   -7.0052   30.0388 H   0  0  0  0  0  0  0  0  0  0  0  0
    1.0010   -6.6839   29.7573 H   0  0  0  0  0  0  0  0  0  0  0  0
    2.9964   -2.6772   30.7513 H   0  0  0  0  0  0  0  0  0  0  0  0
    4.5833   -1.2187   31.9290 H   0  0  0  0  0  0  0  0  0  0  0  0
  1  2  1  0
  2  3  1  0
  3  4  2  0
  3  5  1  0
  5  6  2  0
  6  7  1  0
  7  8  2  0
  8  9  1  0
  9 10  1  0
 10 11  1  0
 11 12  1  0
 12 13  1  0
 13 14  2  0
 13 15  2  0
 13 16  1  0
 16 17  2  0
 17 18  1  0
 18 19  1  0
 19 20  2  0
 10 21  1  0
 21 22  1  0
 22 23  1  0
 23 24  1  0
 24 25  1  0
 24 26  1  0
 26 27  1  0
 27 28  1  0
 27 29  1  0
  8 30  1  0
 30 31  2  0
 31  5  1  0
 29  9  1  0
 20 16  1  0
 29 23  1  0
  1 32  1  0
  1 33  1  0
  1 34  1  0
  2 35  1  0
  6 36  1  0
  7 37  1  0
  9 38  1  0
 10 39  1  0
 11 40  1  0
 11 41  1  0
 12 42  1  0
 17 43  1  0
 19 44  1  0
 21 45  1  0
 21 46  1  0
 22 47  1  0
 24 48  1  0
 25 49  1  0
 26 50  1  0
 26 51  1  0
 27 52  1  0
 28 53  1  0
 28 54  1  0
 28 55  1  0
 30 56  1  0
 31 57  1  0
M  END
>  <Energy>  (19) 
90.511000888033195

>  <compound_id>  (19) 
172

>  <target_id>  (19) 
1

>  <reference_id>  (19) 
197

>  <inspiration_ids>  (19) 
[197, 136]

>  <energy_score>  (19) 
-42.4853977839673

>  <distance_score>  (19) 
1.850507066885581

>  <path>  (19) 
/opt/xchem-fragalysis-2/maxwin/BulkDock/SCRATCH/505737/C172-P197/C172-P197.minimised.mol

>  <scratch_subdir>  (19) 
/opt/xchem-fragalysis-2/maxwin/BulkDock/SCRATCH/505737/C172-P197

>  <fragmenstein_runtime>  (19) 
5.500797748565674

>  <fragmenstein_outcome>  (19) 
too moved

>  <fragmenstein_mode>  (19) 
expansion

>  <fragmenstein_error>  (19) 


$$$$
C172-P136
     RDKit          3D

 57 60  0  0  0  0  0  0  0  0999 V2000
    6.0133    1.4022   33.6571 C   0  0  0  0  0  0  0  0  0  0  0  0
    5.2407    0.2015   33.5277 N   0  0  0  0  0  0  0  0  0  0  0  0
    4.3195   -0.5085   34.5363 C   0  0  0  0  0  0  0  0  0  0  0  0
    4.1025   -0.2730   35.6561 O   0  0  0  0  0  0  0  0  0  0  0  0
    3.6366   -1.6834   33.9159 C   0  0  0  0  0  0  0  0  0  0  0  0
    3.5491   -2.8665   34.6502 C   0  0  0  0  0  0  0  0  0  0  0  0
    2.9003   -3.9864   34.1176 C   0  0  0  0  0  0  0  0  0  0  0  0
    2.2740   -3.9416   32.8643 C   0  0  0  0  0  0  0  0  0  0  0  0
    1.5213   -5.1784   32.3380 C   0  0  0  0  0  0  0  0  0  0  0  0
    0.7333   -4.9951   31.0279 C   0  0  0  0  0  0  0  0  0  0  0  0
   -0.5375   -4.1570   31.0968 C   0  0  0  0  0  0  0  0  0  0  0  0
   -0.3729   -2.8836   31.7796 N   0  0  0  0  0  0  0  0  0  0  0  0
   -1.6684   -1.8379   31.6940 S   0  0  0  0  0  0  0  0  0  0  0  0
   -2.8356   -2.6420   31.3974 O   0  0  0  0  0  0  0  0  0  0  0  0
   -1.5903   -0.9836   32.8541 O   0  0  0  0  0  0  0  0  0  0  0  0
   -1.3354   -0.8289   30.3111 C   0  0  0  0  0  0  0  0  0  0  0  0
   -1.5013   -1.2405   29.0034 C   0  0  0  0  0  0  0  0  0  0  0  0
   -0.9867   -0.0022   27.9380 S   0  0  0  0  0  0  0  0  0  0  0  0
   -0.5158    0.9443   29.2780 C   0  0  0  0  0  0  0  0  0  0  0  0
   -0.7126    0.4107   30.4626 N   0  0  0  0  0  0  0  0  0  0  0  0
    0.3453   -6.3915   30.5387 C   0  0  0  0  0  0  0  0  0  0  0  0
   -0.4065   -7.1647   31.5135 N   0  0  0  0  0  0  0  0  0  0  0  0
    0.2493   -7.2279   32.8179 N   0  0  0  0  0  0  0  0  0  0  0  0
   -0.7790   -7.6552   33.8074 C   0  0  0  0  0  0  0  0  0  0  0  0
   -0.2545   -8.1549   35.0220 O   0  0  0  0  0  0  0  0  0  0  0  0
   -1.4249   -6.3588   34.1605 C   0  0  0  0  0  0  0  0  0  0  0  0
   -0.2929   -5.3499   34.1604 C   0  0  0  0  0  0  0  0  0  0  0  0
    0.1732   -5.0915   35.5981 C   0  0  0  0  0  0  0  0  0  0  0  0
    0.7441   -5.9504   33.3255 N   0  0  0  0  0  0  0  0  0  0  0  0
    2.4413   -2.7587   32.1125 C   0  0  0  0  0  0  0  0  0  0  0  0
    3.0700   -1.6261   32.6436 C   0  0  0  0  0  0  0  0  0  0  0  0
    7.0091    1.2239   33.2461 H   0  0  0  0  0  0  0  0  0  0  0  0
    6.0784    1.6828   34.7106 H   0  0  0  0  0  0  0  0  0  0  0  0
    5.5169    2.1950   33.0931 H   0  0  0  0  0  0  0  0  0  0  0  0
    5.1283   -0.2181   32.6146 H   0  0  0  0  0  0  0  0  0  0  0  0
    3.9883   -2.9223   35.6449 H   0  0  0  0  0  0  0  0  0  0  0  0
    2.8720   -4.8993   34.7119 H   0  0  0  0  0  0  0  0  0  0  0  0
    2.3656   -5.8345   32.0722 H   0  0  0  0  0  0  0  0  0  0  0  0
    1.3919   -4.5605   30.2646 H   0  0  0  0  0  0  0  0  0  0  0  0
   -0.8677   -3.9731   30.0677 H   0  0  0  0  0  0  0  0  0  0  0  0
   -1.3377   -4.7012   31.6000 H   0  0  0  0  0  0  0  0  0  0  0  0
   -0.0250   -2.8813   32.7402 H   0  0  0  0  0  0  0  0  0  0  0  0
   -1.9037   -2.1669   28.6194 H   0  0  0  0  0  0  0  0  0  0  0  0
   -0.0829    1.9288   29.1496 H   0  0  0  0  0  0  0  0  0  0  0  0
   -0.2869   -6.2947   29.6555 H   0  0  0  0  0  0  0  0  0  0  0  0
    1.2220   -6.9414   30.2069 H   0  0  0  0  0  0  0  0  0  0  0  0
   -1.3582   -6.8129   31.5839 H   0  0  0  0  0  0  0  0  0  0  0  0
   -1.4941   -8.3723   33.3909 H   0  0  0  0  0  0  0  0  0  0  0  0
   -0.7229   -9.0042   35.2011 H   0  0  0  0  0  0  0  0  0  0  0  0
   -1.9618   -6.4043   35.1117 H   0  0  0  0  0  0  0  0  0  0  0  0
   -2.0951   -6.0719   33.3615 H   0  0  0  0  0  0  0  0  0  0  0  0
   -0.6872   -4.4092   33.7832 H   0  0  0  0  0  0  0  0  0  0  0  0
    0.7480   -5.9294   36.0058 H   0  0  0  0  0  0  0  0  0  0  0  0
    0.7897   -4.1925   35.6603 H   0  0  0  0  0  0  0  0  0  0  0  0
   -0.6827   -4.9213   36.2614 H   0  0  0  0  0  0  0  0  0  0  0  0
    2.0495   -2.6652   31.1025 H   0  0  0  0  0  0  0  0  0  0  0  0
    3.0879   -0.7094   32.0602 H   0  0  0  0  0  0  0  0  0  0  0  0
  1  2  1  0
  2  3  1  0
  3  4  2  0
  3  5  1  0
  5  6  2  0
  6  7  1  0
  7  8  2  0
  8  9  1  0
  9 10  1  0
 10 11  1  0
 11 12  1  0
 12 13  1  0
 13 14  2  0
 13 15  2  0
 13 16  1  0
 16 17  2  0
 17 18  1  0
 18 19  1  0
 19 20  2  0
 10 21  1  0
 21 22  1  0
 22 23  1  0
 23 24  1  0
 24 25  1  0
 24 26  1  0
 26 27  1  0
 27 28  1  0
 27 29  1  0
  8 30  1  0
 30 31  2  0
 31  5  1  0
 29  9  1  0
 20 16  1  0
 29 23  1  0
  1 32  1  0
  1 33  1  0
  1 34  1  0
  2 35  1  0
  6 36  1  0
  7 37  1  0
  9 38  1  0
 10 39  1  0
 11 40  1  0
 11 41  1  0
 12 42  1  0
 17 43  1  0
 19 44  1  0
 21 45  1  0
 21 46  1  0
 22 47  1  0
 24 48  1  0
 25 49  1  0
 26 50  1  0
 26 51  1  0
 27 52  1  0
 28 53  1  0
 28 54  1  0
 28 55  1  0
 30 56  1  0
 31 57  1  0
M  END
>  <Energy>  (20) 
73.745249640258436

>  <compound_id>  (20) 
172

>  <target_id>  (20) 
1

>  <reference_id>  (20) 
136

>  <inspiration_ids>  (20) 
[197, 136]

>  <energy_score>  (20) 
-59.25114903174432

>  <distance_score>  (20) 
1.7548512793633708

>  <path>  (20) 
/opt/xchem-fragalysis-2/maxwin/BulkDock/SCRATCH/505737/C172-P136/C172-P136.minimised.mol

>  <scratch_subdir>  (20) 
/opt/xchem-fragalysis-2/maxwin/BulkDock/SCRATCH/505737/C172-P136

>  <fragmenstein_runtime>  (20) 
7.22971773147583

>  <fragmenstein_outcome>  (20) 
too moved

>  <fragmenstein_mode>  (20) 
expansion

>  <fragmenstein_error>  (20) 


$$$$
C173-P197
     RDKit          3D

 57 59  0  0  0  0  0  0  0  0999 V2000
   -0.6944   -5.9965   35.5963 C   0  0  0  0  0  0  0  0  0  0  0  0
   -0.5770   -6.0638   34.0709 C   0  0  0  0  0  0  0  0  0  0  0  0
   -0.9268   -7.4770   33.5935 C   0  0  0  0  0  0  0  0  0  0  0  0
   -0.7197   -7.6402   32.0970 C   0  0  0  0  0  0  0  0  0  0  0  0
   -1.8950   -7.9572   31.4011 O   0  0  0  0  0  0  0  0  0  0  0  0
   -0.1995   -6.4616   31.4574 N   0  0  0  0  0  0  0  0  0  0  0  0
    1.0035   -6.0320   32.1512 C   0  0  0  0  0  0  0  0  0  0  0  0
    1.7111   -4.9970   31.2522 C   0  0  0  0  0  0  0  0  0  0  0  0
    0.8426   -3.8208   30.8161 C   0  0  0  0  0  0  0  0  0  0  0  0
    0.3337   -3.0732   31.9856 N   0  0  0  0  0  0  0  0  0  0  0  0
   -1.2108   -2.3971   31.8158 S   0  0  0  0  0  0  0  0  0  0  0  0
   -1.4428   -1.5323   32.9492 O   0  0  0  0  0  0  0  0  0  0  0  0
   -2.1121   -3.4892   31.4945 O   0  0  0  0  0  0  0  0  0  0  0  0
   -1.1839   -1.3637   30.4063 C   0  0  0  0  0  0  0  0  0  0  0  0
   -1.4088   -1.8442   29.1313 C   0  0  0  0  0  0  0  0  0  0  0  0
   -1.1698   -0.6009   27.9879 S   0  0  0  0  0  0  0  0  0  0  0  0
   -0.8078    0.4849   29.2616 C   0  0  0  0  0  0  0  0  0  0  0  0
   -0.8206   -0.0174   30.4768 N   0  0  0  0  0  0  0  0  0  0  0  0
    0.6552   -5.5089   33.4706 N   0  0  0  0  0  0  0  0  0  0  0  0
    1.8170   -5.3493   34.3785 C   0  0  0  0  0  0  0  0  0  0  0  0
    2.4230   -6.6734   34.9247 C   0  0  0  0  0  0  0  0  0  0  0  0
    2.3152   -7.7061   34.3890 O   0  0  0  0  0  0  0  0  0  0  0  0
    3.1990   -6.2845   36.2122 N   0  0  0  0  0  0  0  0  0  0  0  0
    3.9188   -7.1016   37.1508 C   0  0  0  0  0  0  0  0  0  0  0  0
    3.1435   -7.3093   38.4221 C   0  0  0  0  0  0  0  0  0  0  0  0
    3.7491   -7.0864   39.6662 C   0  0  0  0  0  0  0  0  0  0  0  0
    3.0546   -7.3439   40.8501 C   0  0  0  0  0  0  0  0  0  0  0  0
    1.7489   -7.8262   40.8052 C   0  0  0  0  0  0  0  0  0  0  0  0
    1.1369   -8.0541   39.5772 C   0  0  0  0  0  0  0  0  0  0  0  0
    1.8307   -7.8016   38.3939 C   0  0  0  0  0  0  0  0  0  0  0  0
    0.0173   -6.6523   36.1007 H   0  0  0  0  0  0  0  0  0  0  0  0
   -1.6929   -6.3108   35.9053 H   0  0  0  0  0  0  0  0  0  0  0  0
   -0.5599   -4.9739   35.9635 H   0  0  0  0  0  0  0  0  0  0  0  0
   -1.3666   -5.4075   33.6931 H   0  0  0  0  0  0  0  0  0  0  0  0
   -1.9462   -7.7400   33.8858 H   0  0  0  0  0  0  0  0  0  0  0  0
   -0.2705   -8.1618   34.1295 H   0  0  0  0  0  0  0  0  0  0  0  0
   -0.0564   -8.4738   31.9093 H   0  0  0  0  0  0  0  0  0  0  0  0
   -1.7027   -7.5408   30.5434 H   0  0  0  0  0  0  0  0  0  0  0  0
   -0.8906   -5.7187   31.5724 H   0  0  0  0  0  0  0  0  0  0  0  0
    1.6825   -6.8750   32.2416 H   0  0  0  0  0  0  0  0  0  0  0  0
    2.0645   -5.5043   30.3439 H   0  0  0  0  0  0  0  0  0  0  0  0
    2.6145   -4.6174   31.7428 H   0  0  0  0  0  0  0  0  0  0  0  0
    1.4410   -3.1329   30.2082 H   0  0  0  0  0  0  0  0  0  0  0  0
    0.0304   -4.1830   30.1793 H   0  0  0  0  0  0  0  0  0  0  0  0
    0.3140   -3.6486   32.8387 H   0  0  0  0  0  0  0  0  0  0  0  0
   -1.6817   -2.8425   28.8214 H   0  0  0  0  0  0  0  0  0  0  0  0
   -0.5735    1.5226   29.0634 H   0  0  0  0  0  0  0  0  0  0  0  0
    2.6305   -4.8174   33.8737 H   0  0  0  0  0  0  0  0  0  0  0  0
    1.5253   -4.6962   35.2072 H   0  0  0  0  0  0  0  0  0  0  0  0
    3.0115   -5.3151   36.4411 H   0  0  0  0  0  0  0  0  0  0  0  0
    4.1272   -8.0709   36.6858 H   0  0  0  0  0  0  0  0  0  0  0  0
    4.8700   -6.5961   37.3456 H   0  0  0  0  0  0  0  0  0  0  0  0
    4.7732   -6.7253   39.7275 H   0  0  0  0  0  0  0  0  0  0  0  0
    3.5359   -7.1786   41.8105 H   0  0  0  0  0  0  0  0  0  0  0  0
    1.2145   -8.0468   41.7255 H   0  0  0  0  0  0  0  0  0  0  0  0
    0.1346   -8.4735   39.5410 H   0  0  0  0  0  0  0  0  0  0  0  0
    1.3482   -8.0376   37.4495 H   0  0  0  0  0  0  0  0  0  0  0  0
  1  2  1  0
  2  3  1  0
  3  4  1  0
  4  5  1  0
  4  6  1  0
  6  7  1  0
  7  8  1  0
  8  9  1  0
  9 10  1  0
 10 11  1  0
 11 12  2  0
 11 13  2  0
 11 14  1  0
 14 15  2  0
 15 16  1  0
 16 17  1  0
 17 18  2  0
  7 19  1  0
 19 20  1  0
 20 21  1  0
 21 22  2  0
 21 23  1  0
 23 24  1  0
 24 25  1  0
 25 26  2  0
 26 27  1  0
 27 28  2  0
 28 29  1  0
 29 30  2  0
 19  2  1  0
 30 25  1  0
 18 14  1  0
  1 31  1  0
  1 32  1  0
  1 33  1  0
  2 34  1  0
  3 35  1  0
  3 36  1  0
  4 37  1  0
  5 38  1  0
  6 39  1  0
  7 40  1  0
  8 41  1  0
  8 42  1  0
  9 43  1  0
  9 44  1  0
 10 45  1  0
 15 46  1  0
 17 47  1  0
 20 48  1  0
 20 49  1  0
 23 50  1  0
 24 51  1  0
 24 52  1  0
 26 53  1  0
 27 54  1  0
 28 55  1  0
 29 56  1  0
 30 57  1  0
M  END
>  <Energy>  (21) 
-41.558334210357721

>  <compound_id>  (21) 
173

>  <target_id>  (21) 
1

>  <reference_id>  (21) 
197

>  <inspiration_ids>  (21) 
[197, 140]

>  <energy_score>  (21) 
-84.33676083280824

>  <distance_score>  (21) 
0.5203255096194366

>  <path>  (21) 
/opt/xchem-fragalysis-2/maxwin/BulkDock/SCRATCH/505737/C173-P197/C173-P197.minimised.mol

>  <scratch_subdir>  (21) 
/opt/xchem-fragalysis-2/maxwin/BulkDock/SCRATCH/505737/C173-P197

>  <fragmenstein_runtime>  (21) 
4.723403215408325

>  <fragmenstein_outcome>  (21) 
acceptable

>  <fragmenstein_mode>  (21) 
expansion

>  <fragmenstein_error>  (21) 


$$$$
C173-P140
     RDKit          3D

 57 59  0  0  0  0  0  0  0  0999 V2000
   -0.7671   -5.8267   35.5397 C   0  0  0  0  0  0  0  0  0  0  0  0
   -0.6545   -5.8750   34.0140 C   0  0  0  0  0  0  0  0  0  0  0  0
   -0.9932   -7.2879   33.5329 C   0  0  0  0  0  0  0  0  0  0  0  0
   -0.7937   -7.4559   32.0368 C   0  0  0  0  0  0  0  0  0  0  0  0
   -1.9816   -7.7385   31.3496 O   0  0  0  0  0  0  0  0  0  0  0  0
   -0.2581   -6.2814   31.4024 N   0  0  0  0  0  0  0  0  0  0  0  0
    0.9418   -5.8622   32.1077 C   0  0  0  0  0  0  0  0  0  0  0  0
    1.6695   -4.8525   31.1975 C   0  0  0  0  0  0  0  0  0  0  0  0
    0.8199   -3.6641   30.7537 C   0  0  0  0  0  0  0  0  0  0  0  0
    0.3122   -2.9219   31.9238 N   0  0  0  0  0  0  0  0  0  0  0  0
   -1.2080   -2.2013   31.7511 S   0  0  0  0  0  0  0  0  0  0  0  0
   -1.4450   -1.3981   32.9278 O   0  0  0  0  0  0  0  0  0  0  0  0
   -2.1307   -3.2479   31.3523 O   0  0  0  0  0  0  0  0  0  0  0  0
   -1.1150   -1.0860   30.4084 C   0  0  0  0  0  0  0  0  0  0  0  0
   -1.3880   -1.4445   29.1024 C   0  0  0  0  0  0  0  0  0  0  0  0
   -1.0943   -0.1158   28.0617 S   0  0  0  0  0  0  0  0  0  0  0  0
   -0.6132    0.8201   29.4094 C   0  0  0  0  0  0  0  0  0  0  0  0
   -0.6464    0.2187   30.5773 N   0  0  0  0  0  0  0  0  0  0  0  0
    0.5766   -5.3175   33.4142 N   0  0  0  0  0  0  0  0  0  0  0  0
    1.7217   -5.0979   34.3321 C   0  0  0  0  0  0  0  0  0  0  0  0
    2.3610   -6.3888   34.9155 C   0  0  0  0  0  0  0  0  0  0  0  0
    2.3500   -7.4158   34.3598 O   0  0  0  0  0  0  0  0  0  0  0  0
    2.9871   -5.9900   36.2775 N   0  0  0  0  0  0  0  0  0  0  0  0
    3.8062   -6.7471   37.1864 C   0  0  0  0  0  0  0  0  0  0  0  0
    3.1024   -7.0617   38.4770 C   0  0  0  0  0  0  0  0  0  0  0  0
    3.8099   -7.0313   39.6871 C   0  0  0  0  0  0  0  0  0  0  0  0
    3.1902   -7.3978   40.8839 C   0  0  0  0  0  0  0  0  0  0  0  0
    1.8579   -7.8014   40.8866 C   0  0  0  0  0  0  0  0  0  0  0  0
    1.1458   -7.8426   39.6931 C   0  0  0  0  0  0  0  0  0  0  0  0
    1.7661   -7.4851   38.4961 C   0  0  0  0  0  0  0  0  0  0  0  0
   -0.0585   -6.4934   36.0328 H   0  0  0  0  0  0  0  0  0  0  0  0
   -1.7662   -6.1422   35.8413 H   0  0  0  0  0  0  0  0  0  0  0  0
   -0.6318   -4.8103   35.9228 H   0  0  0  0  0  0  0  0  0  0  0  0
   -1.4509   -5.2213   33.6436 H   0  0  0  0  0  0  0  0  0  0  0  0
   -2.0080   -7.5625   33.8323 H   0  0  0  0  0  0  0  0  0  0  0  0
   -0.3182   -7.9548   34.0649 H   0  0  0  0  0  0  0  0  0  0  0  0
   -0.1513   -8.3055   31.8394 H   0  0  0  0  0  0  0  0  0  0  0  0
   -1.8278   -7.2445   30.5263 H   0  0  0  0  0  0  0  0  0  0  0  0
   -0.9406   -5.5305   31.5196 H   0  0  0  0  0  0  0  0  0  0  0  0
    1.6062   -6.7111   32.2185 H   0  0  0  0  0  0  0  0  0  0  0  0
    2.0127   -5.3729   30.2929 H   0  0  0  0  0  0  0  0  0  0  0  0
    2.5800   -4.4859   31.6848 H   0  0  0  0  0  0  0  0  0  0  0  0
    1.4334   -2.9809   30.1557 H   0  0  0  0  0  0  0  0  0  0  0  0
    0.0077   -4.0092   30.1067 H   0  0  0  0  0  0  0  0  0  0  0  0
    0.2671   -3.5033   32.7717 H   0  0  0  0  0  0  0  0  0  0  0  0
   -1.7381   -2.3899   28.7121 H   0  0  0  0  0  0  0  0  0  0  0  0
   -0.2964    1.8491   29.2941 H   0  0  0  0  0  0  0  0  0  0  0  0
    2.5253   -4.5552   33.8233 H   0  0  0  0  0  0  0  0  0  0  0  0
    1.4014   -4.4302   35.1383 H   0  0  0  0  0  0  0  0  0  0  0  0
    2.8803   -4.9925   36.4202 H   0  0  0  0  0  0  0  0  0  0  0  0
    4.0986   -7.6810   36.6949 H   0  0  0  0  0  0  0  0  0  0  0  0
    4.7065   -6.1505   37.3664 H   0  0  0  0  0  0  0  0  0  0  0  0
    4.8565   -6.7360   39.7087 H   0  0  0  0  0  0  0  0  0  0  0  0
    3.7504   -7.3798   41.8151 H   0  0  0  0  0  0  0  0  0  0  0  0
    1.3793   -8.1080   41.8129 H   0  0  0  0  0  0  0  0  0  0  0  0
    0.1197   -8.2014   39.6886 H   0  0  0  0  0  0  0  0  0  0  0  0
    1.2027   -7.5852   37.5736 H   0  0  0  0  0  0  0  0  0  0  0  0
  1  2  1  0
  2  3  1  0
  3  4  1  0
  4  5  1  0
  4  6  1  0
  6  7  1  0
  7  8  1  0
  8  9  1  0
  9 10  1  0
 10 11  1  0
 11 12  2  0
 11 13  2  0
 11 14  1  0
 14 15  2  0
 15 16  1  0
 16 17  1  0
 17 18  2  0
  7 19  1  0
 19 20  1  0
 20 21  1  0
 21 22  2  0
 21 23  1  0
 23 24  1  0
 24 25  1  0
 25 26  2  0
 26 27  1  0
 27 28  2  0
 28 29  1  0
 29 30  2  0
 19  2  1  0
 30 25  1  0
 18 14  1  0
  1 31  1  0
  1 32  1  0
  1 33  1  0
  2 34  1  0
  3 35  1  0
  3 36  1  0
  4 37  1  0
  5 38  1  0
  6 39  1  0
  7 40  1  0
  8 41  1  0
  8 42  1  0
  9 43  1  0
  9 44  1  0
 10 45  1  0
 15 46  1  0
 17 47  1  0
 20 48  1  0
 20 49  1  0
 23 50  1  0
 24 51  1  0
 24 52  1  0
 26 53  1  0
 27 54  1  0
 28 55  1  0
 29 56  1  0
 30 57  1  0
M  END
>  <Energy>  (22) 
-40.604162043852405

>  <compound_id>  (22) 
173

>  <target_id>  (22) 
1

>  <reference_id>  (22) 
140

>  <inspiration_ids>  (22) 
[197, 140]

>  <energy_score>  (22) 
-83.38258866630456

>  <distance_score>  (22) 
0.5369093627972991

>  <path>  (22) 
/opt/xchem-fragalysis-2/maxwin/BulkDock/SCRATCH/505737/C173-P140/C173-P140.minimised.mol

>  <scratch_subdir>  (22) 
/opt/xchem-fragalysis-2/maxwin/BulkDock/SCRATCH/505737/C173-P140

>  <fragmenstein_runtime>  (22) 
4.270495653152466

>  <fragmenstein_outcome>  (22) 
acceptable

>  <fragmenstein_mode>  (22) 
expansion

>  <fragmenstein_error>  (22) 


$$$$
C174-P197
     RDKit          3D

 56 60  0  0  0  0  0  0  0  0999 V2000
   -1.0833   -7.6009   36.0950 O   0  0  0  0  0  0  0  0  0  0  0  0
   -0.5708   -6.0491   35.9374 S   0  0  0  0  0  6  0  0  0  0  0  0
    0.7763   -5.9822   37.0776 C   0  0  0  0  0  0  0  0  0  0  0  0
    0.8424   -6.6734   38.3687 C   0  0  0  0  0  0  0  0  0  0  0  0
    1.9071   -7.5506   38.6228 C   0  0  0  0  0  0  0  0  0  0  0  0
    1.9727   -8.2419   39.8309 C   0  0  0  0  0  0  0  0  0  0  0  0
    0.9761   -8.0564   40.7838 C   0  0  0  0  0  0  0  0  0  0  0  0
   -0.0770   -7.1747   40.5311 C   0  0  0  0  0  0  0  0  0  0  0  0
   -0.1476   -6.4786   39.3210 C   0  0  0  0  0  0  0  0  0  0  0  0
    2.0231   -5.3938   36.4978 C   0  0  0  0  0  0  0  0  0  0  0  0
    2.0028   -6.1427   35.1688 C   0  0  0  0  0  0  0  0  0  0  0  0
    0.5497   -6.1588   34.5000 C   0  0  0  0  0  0  0  0  0  0  0  0
    0.4073   -7.4991   33.7922 C   0  0  0  0  0  0  0  0  0  0  0  0
   -0.7312   -7.6373   32.7873 C   0  0  0  0  0  0  0  0  0  0  0  0
   -1.9349   -7.9972   33.4207 O   0  0  0  0  0  0  0  0  0  0  0  0
   -0.8942   -6.4345   31.9750 N   0  0  0  0  0  0  0  0  0  0  0  0
    0.0993   -6.2972   30.9011 C   0  0  0  0  0  0  0  0  0  0  0  0
    1.0371   -5.0818   31.0428 C   0  0  0  0  0  0  0  0  0  0  0  0
    0.4128   -3.7787   30.5318 C   0  0  0  0  0  0  0  0  0  0  0  0
    0.1393   -2.8258   31.6134 N   0  0  0  0  0  0  0  0  0  0  0  0
   -1.3753   -2.1082   31.6817 S   0  0  0  0  0  0  0  0  0  0  0  0
   -1.3905   -1.2156   32.8183 O   0  0  0  0  0  0  0  0  0  0  0  0
   -2.4172   -3.0815   31.4332 O   0  0  0  0  0  0  0  0  0  0  0  0
   -1.3624   -1.0685   30.2807 C   0  0  0  0  0  0  0  0  0  0  0  0
   -1.6228   -1.5545   29.0166 C   0  0  0  0  0  0  0  0  0  0  0  0
   -1.2473   -0.3733   27.8595 S   0  0  0  0  0  0  0  0  0  0  0  0
   -0.7931    0.7029   29.1095 C   0  0  0  0  0  0  0  0  0  0  0  0
   -0.8496    0.2274   30.3329 N   0  0  0  0  0  0  0  0  0  0  0  0
    1.4888   -5.0307   32.5018 C   0  0  0  0  0  0  0  0  0  0  0  0
    0.3912   -5.0920   33.5030 N   0  0  0  0  0  0  0  0  0  0  0  0
   -0.8739   -5.2796   32.8237 N   0  0  0  0  0  0  0  0  0  0  0  0
   -1.5074   -5.0720   35.9403 H   0  0  0  0  0  0  0  0  0  0  0  0
    2.6713   -7.7409   37.8770 H   0  0  0  0  0  0  0  0  0  0  0  0
    2.7746   -8.9505   40.0171 H   0  0  0  0  0  0  0  0  0  0  0  0
    1.0053   -8.6158   41.7155 H   0  0  0  0  0  0  0  0  0  0  0  0
   -0.8572   -7.0403   41.2767 H   0  0  0  0  0  0  0  0  0  0  0  0
   -0.9782   -5.8030   39.1373 H   0  0  0  0  0  0  0  0  0  0  0  0
    2.9300   -5.5723   37.0762 H   0  0  0  0  0  0  0  0  0  0  0  0
    1.8814   -4.3188   36.3532 H   0  0  0  0  0  0  0  0  0  0  0  0
    2.7852   -5.7259   34.5300 H   0  0  0  0  0  0  0  0  0  0  0  0
    2.3167   -7.1800   35.3607 H   0  0  0  0  0  0  0  0  0  0  0  0
    1.3269   -7.6492   33.2425 H   0  0  0  0  0  0  0  0  0  0  0  0
    0.3548   -8.2550   34.5685 H   0  0  0  0  0  0  0  0  0  0  0  0
   -0.5280   -8.4815   32.1226 H   0  0  0  0  0  0  0  0  0  0  0  0
   -1.7159   -8.5214   34.2215 H   0  0  0  0  0  0  0  0  0  0  0  0
    0.7130   -7.2015   30.8298 H   0  0  0  0  0  0  0  0  0  0  0  0
   -0.4255   -6.2488   29.9433 H   0  0  0  0  0  0  0  0  0  0  0  0
    1.9130   -5.2822   30.4105 H   0  0  0  0  0  0  0  0  0  0  0  0
   -0.4798   -3.9978   29.9399 H   0  0  0  0  0  0  0  0  0  0  0  0
    1.1185   -3.2903   29.8482 H   0  0  0  0  0  0  0  0  0  0  0  0
    0.8752   -2.1675   31.8626 H   0  0  0  0  0  0  0  0  0  0  0  0
   -1.9766   -2.5337   28.7291 H   0  0  0  0  0  0  0  0  0  0  0  0
   -0.4603    1.7094   28.8944 H   0  0  0  0  0  0  0  0  0  0  0  0
    2.0846   -4.1296   32.6931 H   0  0  0  0  0  0  0  0  0  0  0  0
    2.1990   -5.8576   32.6058 H   0  0  0  0  0  0  0  0  0  0  0  0
   -1.6997   -5.2178   33.4425 H   0  0  0  0  0  0  0  0  0  0  0  0
  1  2  2  0
  2  3  2  0
  3  4  1  0
  4  5  2  0
  5  6  1  0
  6  7  2  0
  7  8  1  0
  8  9  2  0
  3 10  1  0
 10 11  1  0
 11 12  1  0
 12 13  1  0
 13 14  1  0
 14 15  1  0
 14 16  1  0
 16 17  1  0
 17 18  1  0
 18 19  1  0
 19 20  1  0
 20 21  1  0
 21 22  2  0
 21 23  2  0
 21 24  1  0
 24 25  2  0
 25 26  1  0
 26 27  1  0
 27 28  2  0
 18 29  1  0
 29 30  1  0
 30 31  1  0
 12  2  1  0
 31 16  1  0
  9  4  1  0
 30 12  1  0
 28 24  1  0
  2 32  1  0
  5 33  1  0
  6 34  1  0
  7 35  1  0
  8 36  1  0
  9 37  1  0
 10 38  1  0
 10 39  1  0
 11 40  1  0
 11 41  1  0
 13 42  1  0
 13 43  1  0
 14 44  1  0
 15 45  1  0
 17 46  1  0
 17 47  1  0
 18 48  1  0
 19 49  1  0
 19 50  1  0
 20 51  1  0
 25 52  1  0
 27 53  1  0
 29 54  1  0
 29 55  1  0
 31 56  1  0
M  END
>  <Energy>  (23) 
102.84668193097745

>  <compound_id>  (23) 
174

>  <target_id>  (23) 
1

>  <reference_id>  (23) 
197

>  <inspiration_ids>  (23) 
[197, 144]

>  <energy_score>  (23) 
-127.26739935481856

>  <distance_score>  (23) 
1.5589629992447027

>  <path>  (23) 
/opt/xchem-fragalysis-2/maxwin/BulkDock/SCRATCH/505737/C174-P197/C174-P197.minimised.mol

>  <scratch_subdir>  (23) 
/opt/xchem-fragalysis-2/maxwin/BulkDock/SCRATCH/505737/C174-P197

>  <fragmenstein_runtime>  (23) 
10.064265489578247

>  <fragmenstein_outcome>  (23) 
too moved

>  <fragmenstein_mode>  (23) 
expansion

>  <fragmenstein_error>  (23) 


$$$$
C174-P144
     RDKit          3D

 56 60  0  0  0  0  0  0  0  0999 V2000
   -1.5808   -6.0578   36.4923 O   0  0  0  0  0  0  0  0  0  0  0  0
   -0.1112   -5.4182   36.2401 S   0  0  0  0  0  6  0  0  0  0  0  0
    0.9473   -6.5740   37.0765 C   0  0  0  0  0  0  0  0  0  0  0  0
    0.9999   -6.8477   38.5245 C   0  0  0  0  0  0  0  0  0  0  0  0
    2.0933   -7.5384   39.0750 C   0  0  0  0  0  0  0  0  0  0  0  0
    2.1026   -7.9087   40.4192 C   0  0  0  0  0  0  0  0  0  0  0  0
    1.0171   -7.5910   41.2248 C   0  0  0  0  0  0  0  0  0  0  0  0
   -0.0601   -6.8843   40.6904 C   0  0  0  0  0  0  0  0  0  0  0  0
   -0.0663   -6.5016   39.3458 C   0  0  0  0  0  0  0  0  0  0  0  0
    1.7970   -7.4063   36.1604 C   0  0  0  0  0  0  0  0  0  0  0  0
    1.7456   -6.5640   34.8962 C   0  0  0  0  0  0  0  0  0  0  0  0
    0.2966   -6.0628   34.5718 C   0  0  0  0  0  0  0  0  0  0  0  0
   -0.6839   -7.2120   34.1178 C   0  0  0  0  0  0  0  0  0  0  0  0
   -0.7593   -7.3009   32.5781 C   0  0  0  0  0  0  0  0  0  0  0  0
   -1.6624   -8.2932   32.1164 O   0  0  0  0  0  0  0  0  0  0  0  0
   -1.0802   -6.0150   31.9472 N   0  0  0  0  0  0  0  0  0  0  0  0
   -0.2146   -5.7275   30.7830 C   0  0  0  0  0  0  0  0  0  0  0  0
    1.0036   -4.8474   31.1034 C   0  0  0  0  0  0  0  0  0  0  0  0
    0.7976   -3.3692   30.7876 C   0  0  0  0  0  0  0  0  0  0  0  0
    0.1214   -2.6306   31.8638 N   0  0  0  0  0  0  0  0  0  0  0  0
   -1.3395   -1.8833   31.4960 S   0  0  0  0  0  0  0  0  0  0  0  0
   -1.6846   -1.0271   32.6083 O   0  0  0  0  0  0  0  0  0  0  0  0
   -2.2587   -2.8931   31.0150 O   0  0  0  0  0  0  0  0  0  0  0  0
   -1.0240   -0.8244   30.1435 C   0  0  0  0  0  0  0  0  0  0  0  0
   -1.2453   -1.1881   28.8288 C   0  0  0  0  0  0  0  0  0  0  0  0
   -0.6976    0.0492   27.7840 S   0  0  0  0  0  0  0  0  0  0  0  0
   -0.1370    0.9263   29.1383 C   0  0  0  0  0  0  0  0  0  0  0  0
   -0.3641    0.3929   30.3171 N   0  0  0  0  0  0  0  0  0  0  0  0
    1.4121   -5.0974   32.5518 C   0  0  0  0  0  0  0  0  0  0  0  0
    0.3238   -4.9753   33.5525 N   0  0  0  0  0  0  0  0  0  0  0  0
   -0.9521   -4.9429   32.8941 N   0  0  0  0  0  0  0  0  0  0  0  0
    0.0459   -4.0937   36.4664 H   0  0  0  0  0  0  0  0  0  0  0  0
    2.9544   -7.8238   38.4833 H   0  0  0  0  0  0  0  0  0  0  0  0
    2.9465   -8.4539   40.8317 H   0  0  0  0  0  0  0  0  0  0  0  0
    1.0050   -7.8866   42.2705 H   0  0  0  0  0  0  0  0  0  0  0  0
   -0.9131   -6.6355   41.3186 H   0  0  0  0  0  0  0  0  0  0  0  0
   -0.9378   -5.9804   38.9581 H   0  0  0  0  0  0  0  0  0  0  0  0
    1.3196   -8.3720   36.0158 H   0  0  0  0  0  0  0  0  0  0  0  0
    2.8317   -7.5239   36.4790 H   0  0  0  0  0  0  0  0  0  0  0  0
    2.4039   -5.6942   35.0489 H   0  0  0  0  0  0  0  0  0  0  0  0
    2.1964   -7.1426   34.1107 H   0  0  0  0  0  0  0  0  0  0  0  0
   -0.3981   -8.1745   34.5443 H   0  0  0  0  0  0  0  0  0  0  0  0
   -1.7062   -7.0448   34.4725 H   0  0  0  0  0  0  0  0  0  0  0  0
    0.2155   -7.6282   32.2421 H   0  0  0  0  0  0  0  0  0  0  0  0
   -2.5197   -8.1031   32.5346 H   0  0  0  0  0  0  0  0  0  0  0  0
    0.1075   -6.6637   30.3095 H   0  0  0  0  0  0  0  0  0  0  0  0
   -0.7764   -5.2159   30.0025 H   0  0  0  0  0  0  0  0  0  0  0  0
    1.8059   -5.1772   30.4333 H   0  0  0  0  0  0  0  0  0  0  0  0
    0.3053   -3.2558   29.8188 H   0  0  0  0  0  0  0  0  0  0  0  0
    1.7816   -2.8961   30.6740 H   0  0  0  0  0  0  0  0  0  0  0  0
   -0.0595   -3.2198   32.6911 H   0  0  0  0  0  0  0  0  0  0  0  0
   -1.6868   -2.0946   28.4373 H   0  0  0  0  0  0  0  0  0  0  0  0
    0.3733    1.8736   29.0177 H   0  0  0  0  0  0  0  0  0  0  0  0
    1.7917   -6.1092   32.5411 H   0  0  0  0  0  0  0  0  0  0  0  0
    2.2433   -4.4442   32.8415 H   0  0  0  0  0  0  0  0  0  0  0  0
   -1.7527   -4.8776   33.5586 H   0  0  0  0  0  0  0  0  0  0  0  0
  1  2  2  0
  2  3  2  0
  3  4  1  0
  4  5  2  0
  5  6  1  0
  6  7  2  0
  7  8  1  0
  8  9  2  0
  3 10  1  0
 10 11  1  0
 11 12  1  0
 12 13  1  0
 13 14  1  0
 14 15  1  0
 14 16  1  0
 16 17  1  0
 17 18  1  0
 18 19  1  0
 19 20  1  0
 20 21  1  0
 21 22  2  0
 21 23  2  0
 21 24  1  0
 24 25  2  0
 25 26  1  0
 26 27  1  0
 27 28  2  0
 18 29  1  0
 29 30  1  0
 30 31  1  0
 12  2  1  0
 31 16  1  0
  9  4  1  0
 30 12  1  0
 28 24  1  0
  2 32  1  0
  5 33  1  0
  6 34  1  0
  7 35  1  0
  8 36  1  0
  9 37  1  0
 10 38  1  0
 10 39  1  0
 11 40  1  0
 11 41  1  0
 13 42  1  0
 13 43  1  0
 14 44  1  0
 15 45  1  0
 17 46  1  0
 17 47  1  0
 18 48  1  0
 19 49  1  0
 19 50  1  0
 20 51  1  0
 25 52  1  0
 27 53  1  0
 29 54  1  0
 29 55  1  0
 31 56  1  0
M  END
>  <Energy>  (24) 
92.536948056107477

>  <compound_id>  (24) 
174

>  <target_id>  (24) 
1

>  <reference_id>  (24) 
144

>  <inspiration_ids>  (24) 
[197, 144]

>  <energy_score>  (24) 
-137.57713322968831

>  <distance_score>  (24) 
1.1404451888297678

>  <path>  (24) 
/opt/xchem-fragalysis-2/maxwin/BulkDock/SCRATCH/505737/C174-P144/C174-P144.minimised.mol

>  <scratch_subdir>  (24) 
/opt/xchem-fragalysis-2/maxwin/BulkDock/SCRATCH/505737/C174-P144

>  <fragmenstein_runtime>  (24) 
9.254267930984497

>  <fragmenstein_outcome>  (24) 
too moved

>  <fragmenstein_mode>  (24) 
expansion

>  <fragmenstein_error>  (24) 


$$$$
C176-P197
     RDKit          3D

 50 54  0  0  0  0  0  0  0  0999 V2000
   -0.4519   -7.0033   35.0093 C   0  0  0  0  0  0  0  0  0  0  0  0
   -0.1085   -6.9130   33.5739 C   0  0  0  0  0  0  0  0  0  0  0  0
    0.8465   -6.0088   33.1142 N   0  0  0  0  0  0  0  0  0  0  0  0
    0.8783   -6.1350   31.7871 C   0  0  0  0  0  0  0  0  0  0  0  0
    1.2560   -5.0497   30.8255 C   0  0  0  0  0  0  0  0  0  0  0  0
    0.1226   -4.0033   30.9142 C   0  0  0  0  0  0  0  0  0  0  0  0
    0.2660   -2.7499   30.0137 C   0  0  0  0  0  0  0  0  0  0  0  0
   -0.3706   -1.5056   30.5770 C   0  0  0  0  0  0  0  0  0  0  0  0
   -1.0311   -1.3342   31.7474 C   0  0  0  0  0  0  0  0  0  0  0  0
   -1.0418   -0.0329   32.3211 N   0  0  0  0  0  0  0  0  0  0  0  0
   -0.0559    0.8062   31.6719 C   0  0  0  0  0  0  0  0  0  0  0  0
   -0.0862    0.0718   30.0608 S   0  0  0  0  0  0  0  0  0  0  0  0
   -1.5590    0.6553   29.3470 C   0  0  0  0  0  0  0  0  0  0  0  0
   -1.2496    1.8878   28.5687 C   0  0  0  0  0  0  0  0  0  0  0  0
   -0.0503    2.7626   29.0079 C   0  0  0  0  0  0  0  0  0  0  0  0
    1.3185    2.0624   29.0145 C   0  0  0  0  0  0  0  0  0  0  0  0
    1.2628    0.5421   29.0871 C   0  0  0  0  0  0  0  0  0  0  0  0
   -1.4046   -2.7525   32.6584 S   0  0  0  0  0  0  0  0  0  0  0  0
   -1.3948   -2.3949   34.0580 O   0  0  0  0  0  0  0  0  0  0  0  0
   -2.4965   -3.4700   32.0306 O   0  0  0  0  0  0  0  0  0  0  0  0
   -0.0026   -3.6035   32.3491 N   0  0  0  0  0  0  0  0  0  0  0  0
    0.1496   -7.2166   31.4347 N   0  0  0  0  0  0  0  0  0  0  0  0
   -0.0798   -7.9778   30.3296 N   0  0  0  0  0  0  0  0  0  0  0  0
   -0.8948   -8.9150   30.9403 C   0  0  0  0  0  0  0  0  0  0  0  0
   -1.3178   -8.7032   32.1553 N   0  0  0  0  0  0  0  0  0  0  0  0
   -0.5625   -7.6419   32.5069 C   0  0  0  0  0  0  0  0  0  0  0  0
   -1.3613   -7.5929   35.1613 H   0  0  0  0  0  0  0  0  0  0  0  0
    0.3626   -7.4776   35.5646 H   0  0  0  0  0  0  0  0  0  0  0  0
   -0.6213   -6.0050   35.4243 H   0  0  0  0  0  0  0  0  0  0  0  0
    1.3555   -5.4312   29.8044 H   0  0  0  0  0  0  0  0  0  0  0  0
    2.2158   -4.6144   31.1254 H   0  0  0  0  0  0  0  0  0  0  0  0
   -0.8001   -4.5185   30.6188 H   0  0  0  0  0  0  0  0  0  0  0  0
   -0.1499   -2.9642   29.0225 H   0  0  0  0  0  0  0  0  0  0  0  0
    1.3337   -2.5430   29.8689 H   0  0  0  0  0  0  0  0  0  0  0  0
   -0.9485   -0.1127   33.3377 H   0  0  0  0  0  0  0  0  0  0  0  0
    0.9414    0.6795   32.1025 H   0  0  0  0  0  0  0  0  0  0  0  0
   -0.3483    1.8493   31.6738 H   0  0  0  0  0  0  0  0  0  0  0  0
   -2.2896    0.8300   30.1334 H   0  0  0  0  0  0  0  0  0  0  0  0
   -1.9511   -0.1384   28.7022 H   0  0  0  0  0  0  0  0  0  0  0  0
   -2.1508    2.4916   28.4422 H   0  0  0  0  0  0  0  0  0  0  0  0
   -1.0099    1.4111   27.6343 H   0  0  0  0  0  0  0  0  0  0  0  0
   -0.2056    3.1565   30.0127 H   0  0  0  0  0  0  0  0  0  0  0  0
    0.0364    3.6734   28.4120 H   0  0  0  0  0  0  0  0  0  0  0  0
    1.8735    2.4330   29.8872 H   0  0  0  0  0  0  0  0  0  0  0  0
    1.9249    2.3637   28.1561 H   0  0  0  0  0  0  0  0  0  0  0  0
    2.1779    0.1298   29.5196 H   0  0  0  0  0  0  0  0  0  0  0  0
    1.1205    0.1052   28.0942 H   0  0  0  0  0  0  0  0  0  0  0  0
    0.1281   -4.3544   33.0410 H   0  0  0  0  0  0  0  0  0  0  0  0
    0.7443   -8.4404   29.9599 H   0  0  0  0  0  0  0  0  0  0  0  0
   -1.0565   -9.8454   30.3747 H   0  0  0  0  0  0  0  0  0  0  0  0
  1  2  1  0
  2  3  1  0
  3  4  2  0
  4  5  1  0
  5  6  1  0
  6  7  1  0
  7  8  1  0
  8  9  2  0
  9 10  1  0
 10 11  1  0
 11 12  1  0
 12 13  1  0
 13 14  1  0
 14 15  1  0
 15 16  1  0
 16 17  1  0
  9 18  1  0
 18 19  2  0
 18 20  2  0
 18 21  1  0
  4 22  1  0
 22 23  1  0
 23 24  1  0
 24 25  2  0
 25 26  1  0
 26  2  2  0
 21  6  1  0
 26 22  1  0
 12  8  1  0
 17 12  1  0
  1 27  1  0
  1 28  1  0
  1 29  1  0
  5 30  1  0
  5 31  1  0
  6 32  1  0
  7 33  1  0
  7 34  1  0
 10 35  1  0
 11 36  1  0
 11 37  1  0
 13 38  1  0
 13 39  1  0
 14 40  1  0
 14 41  1  0
 15 42  1  0
 15 43  1  0
 16 44  1  0
 16 45  1  0
 17 46  1  0
 17 47  1  0
 21 48  1  0
 23 49  1  0
 24 50  1  0
M  END
>  <Energy>  (25) 
111.31416862039725

>  <compound_id>  (25) 
176

>  <target_id>  (25) 
1

>  <reference_id>  (25) 
197

>  <inspiration_ids>  (25) 
[197, 147]

>  <energy_score>  (25) 
-49.53580474256728

>  <distance_score>  (25) 
1.8195541488945586

>  <path>  (25) 
/opt/xchem-fragalysis-2/maxwin/BulkDock/SCRATCH/505737/C176-P197/C176-P197.minimised.mol

>  <scratch_subdir>  (25) 
/opt/xchem-fragalysis-2/maxwin/BulkDock/SCRATCH/505737/C176-P197

>  <fragmenstein_runtime>  (25) 
10.5639328956604

>  <fragmenstein_outcome>  (25) 
too moved

>  <fragmenstein_mode>  (25) 
expansion

>  <fragmenstein_error>  (25) 


$$$$
C176-P147
     RDKit          3D

 50 54  0  0  0  0  0  0  0  0999 V2000
   -0.4048   -6.5838   34.8792 C   0  0  0  0  0  0  0  0  0  0  0  0
   -0.1583   -6.5311   33.4208 C   0  0  0  0  0  0  0  0  0  0  0  0
    0.6416   -5.5461   32.8434 N   0  0  0  0  0  0  0  0  0  0  0  0
    0.6491   -5.7791   31.5301 C   0  0  0  0  0  0  0  0  0  0  0  0
    1.0465   -4.7895   30.4686 C   0  0  0  0  0  0  0  0  0  0  0  0
   -0.0027   -3.6501   30.4783 C   0  0  0  0  0  0  0  0  0  0  0  0
    0.1422   -2.5138   29.4068 C   0  0  0  0  0  0  0  0  0  0  0  0
   -0.4863   -1.1773   29.7698 C   0  0  0  0  0  0  0  0  0  0  0  0
   -1.0540   -0.8503   30.9609 C   0  0  0  0  0  0  0  0  0  0  0  0
   -1.0098    0.5224   31.3318 N   0  0  0  0  0  0  0  0  0  0  0  0
   -0.0860    1.2456   30.4754 C   0  0  0  0  0  0  0  0  0  0  0  0
   -0.2520    0.3279   28.9699 S   0  0  0  0  0  0  0  0  0  0  0  0
   -1.7246    0.8759   28.1881 C   0  0  0  0  0  0  0  0  0  0  0  0
   -1.5074    1.8987   27.0913 C   0  0  0  0  0  0  0  0  0  0  0  0
   -0.3739    2.8711   27.3758 C   0  0  0  0  0  0  0  0  0  0  0  0
    1.0177    2.2294   27.5516 C   0  0  0  0  0  0  0  0  0  0  0  0
    1.0881    0.7531   27.9792 C   0  0  0  0  0  0  0  0  0  0  0  0
   -1.3603   -2.1264   32.1242 S   0  0  0  0  0  0  0  0  0  0  0  0
   -1.2316   -1.5772   33.4566 O   0  0  0  0  0  0  0  0  0  0  0  0
   -2.5110   -2.9242   31.7407 O   0  0  0  0  0  0  0  0  0  0  0  0
   -0.0044   -3.0733   31.8558 N   0  0  0  0  0  0  0  0  0  0  0  0
    0.0070   -6.9474   31.2905 N   0  0  0  0  0  0  0  0  0  0  0  0
   -0.2269   -7.7979   30.2491 N   0  0  0  0  0  0  0  0  0  0  0  0
   -0.9131   -8.7666   30.9618 C   0  0  0  0  0  0  0  0  0  0  0  0
   -1.2439   -8.5307   32.1994 N   0  0  0  0  0  0  0  0  0  0  0  0
   -0.5805   -7.3794   32.4335 C   0  0  0  0  0  0  0  0  0  0  0  0
   -1.3444   -7.0999   35.1002 H   0  0  0  0  0  0  0  0  0  0  0  0
    0.4084   -7.1168   35.3809 H   0  0  0  0  0  0  0  0  0  0  0  0
   -0.4668   -5.5734   35.2946 H   0  0  0  0  0  0  0  0  0  0  0  0
    1.0903   -5.2612   29.4842 H   0  0  0  0  0  0  0  0  0  0  0  0
    2.0437   -4.3969   30.6984 H   0  0  0  0  0  0  0  0  0  0  0  0
   -0.9720   -4.1308   30.3030 H   0  0  0  0  0  0  0  0  0  0  0  0
   -0.2844   -2.8682   28.4628 H   0  0  0  0  0  0  0  0  0  0  0  0
    1.2106   -2.3393   29.2289 H   0  0  0  0  0  0  0  0  0  0  0  0
   -0.8140    0.5940   32.3333 H   0  0  0  0  0  0  0  0  0  0  0  0
    0.9439    1.1387   30.8320 H   0  0  0  0  0  0  0  0  0  0  0  0
   -0.3012    2.2968   30.3234 H   0  0  0  0  0  0  0  0  0  0  0  0
   -2.3404    1.3171   28.9717 H   0  0  0  0  0  0  0  0  0  0  0  0
   -2.2228   -0.0091   27.7849 H   0  0  0  0  0  0  0  0  0  0  0  0
   -1.3104    1.3743   26.1629 H   0  0  0  0  0  0  0  0  0  0  0  0
   -2.4398    2.4524   26.9279 H   0  0  0  0  0  0  0  0  0  0  0  0
   -0.6191    3.4396   28.2816 H   0  0  0  0  0  0  0  0  0  0  0  0
   -0.3178    3.6117   26.5688 H   0  0  0  0  0  0  0  0  0  0  0  0
    1.5639    2.8305   28.2907 H   0  0  0  0  0  0  0  0  0  0  0  0
    1.5865    2.3421   26.6207 H   0  0  0  0  0  0  0  0  0  0  0  0
    2.0153    0.5493   28.5218 H   0  0  0  0  0  0  0  0  0  0  0  0
    1.0594    0.0945   27.1160 H   0  0  0  0  0  0  0  0  0  0  0  0
    0.0837   -3.7703   32.6119 H   0  0  0  0  0  0  0  0  0  0  0  0
    0.6078   -8.2019   29.8436 H   0  0  0  0  0  0  0  0  0  0  0  0
   -1.0590   -9.7288   30.4470 H   0  0  0  0  0  0  0  0  0  0  0  0
  1  2  1  0
  2  3  1  0
  3  4  2  0
  4  5  1  0
  5  6  1  0
  6  7  1  0
  7  8  1  0
  8  9  2  0
  9 10  1  0
 10 11  1  0
 11 12  1  0
 12 13  1  0
 13 14  1  0
 14 15  1  0
 15 16  1  0
 16 17  1  0
  9 18  1  0
 18 19  2  0
 18 20  2  0
 18 21  1  0
  4 22  1  0
 22 23  1  0
 23 24  1  0
 24 25  2  0
 25 26  1  0
 26  2  2  0
 21  6  1  0
 26 22  1  0
 12  8  1  0
 17 12  1  0
  1 27  1  0
  1 28  1  0
  1 29  1  0
  5 30  1  0
  5 31  1  0
  6 32  1  0
  7 33  1  0
  7 34  1  0
 10 35  1  0
 11 36  1  0
 11 37  1  0
 13 38  1  0
 13 39  1  0
 14 40  1  0
 14 41  1  0
 15 42  1  0
 15 43  1  0
 16 44  1  0
 16 45  1  0
 17 46  1  0
 17 47  1  0
 21 48  1  0
 23 49  1  0
 24 50  1  0
M  END
>  <Energy>  (26) 
98.574090332438345

>  <compound_id>  (26) 
176

>  <target_id>  (26) 
1

>  <reference_id>  (26) 
147

>  <inspiration_ids>  (26) 
[197, 147]

>  <energy_score>  (26) 
-62.27588303052568

>  <distance_score>  (26) 
1.2892035487927724

>  <path>  (26) 
/opt/xchem-fragalysis-2/maxwin/BulkDock/SCRATCH/505737/C176-P147/C176-P147.minimised.mol

>  <scratch_subdir>  (26) 
/opt/xchem-fragalysis-2/maxwin/BulkDock/SCRATCH/505737/C176-P147

>  <fragmenstein_runtime>  (26) 
10.420518398284912

>  <fragmenstein_outcome>  (26) 
too moved

>  <fragmenstein_mode>  (26) 
expansion

>  <fragmenstein_error>  (26) 


$$$$
C177-P197
     RDKit          3D

 46 50  0  0  0  0  0  0  0  0999 V2000
   -1.4908   -1.2383   33.1613 O   0  0  0  0  0  0  0  0  0  0  0  0
   -1.7295   -2.0787   32.0130 S   0  0  0  0  0  0  0  0  0  0  0  0
   -3.0356   -2.6106   31.6835 O   0  0  0  0  0  0  0  0  0  0  0  0
   -0.7059   -3.3940   32.1243 N   0  0  0  0  0  0  0  0  0  0  0  0
   -0.8090   -4.3572   31.0409 C   0  0  0  0  0  0  0  0  0  0  0  0
   -1.1307   -5.7793   31.5783 C   0  0  0  0  0  0  0  0  0  0  0  0
   -0.3977   -6.7100   30.6592 C   0  0  0  0  0  0  0  0  0  0  0  0
    0.8941   -6.7510   30.7237 N   0  0  0  0  0  0  0  0  0  0  0  0
    1.3083   -6.1314   31.8942 N   0  0  0  0  0  0  0  0  0  0  0  0
    2.3320   -5.2327   31.9955 C   0  0  0  0  0  0  0  0  0  0  0  0
    2.9632   -4.8188   30.9081 O   0  0  0  0  0  0  0  0  0  0  0  0
    2.4728   -4.9393   33.3365 C   0  0  0  0  0  0  0  0  0  0  0  0
    1.3730   -5.5502   34.0298 C   0  0  0  0  0  0  0  0  0  0  0  0
    1.2460   -5.8103   35.4922 C   0  0  0  0  0  0  0  0  0  0  0  0
    2.1113   -7.0019   35.7340 C   0  0  0  0  0  0  0  0  0  0  0  0
    2.4849   -7.9043   34.8426 N   0  0  0  0  0  0  0  0  0  0  0  0
    3.5115   -8.5963   35.4055 N   0  0  0  0  0  0  0  0  0  0  0  0
    3.6249   -8.1642   36.6500 C   0  0  0  0  0  0  0  0  0  0  0  0
    4.4928   -8.7818   37.5880 C   0  0  0  0  0  0  0  0  0  0  0  0
    4.5818   -8.6434   38.9558 C   0  0  0  0  0  0  0  0  0  0  0  0
    5.5672   -9.5556   39.4084 C   0  0  0  0  0  0  0  0  0  0  0  0
    6.0595  -10.2159   38.3047 C   0  0  0  0  0  0  0  0  0  0  0  0
    5.4041   -9.7359   37.2031 N   0  0  0  0  0  0  0  0  0  0  0  0
    2.7654   -7.1263   36.9242 O   0  0  0  0  0  0  0  0  0  0  0  0
    0.5380   -5.9828   33.0326 C   0  0  0  0  0  0  0  0  0  0  0  0
   -0.8313   -6.2563   32.8153 C   0  0  0  0  0  0  0  0  0  0  0  0
   -1.2424   -1.1295   30.6189 C   0  0  0  0  0  0  0  0  0  0  0  0
   -1.5040   -1.5043   29.3144 C   0  0  0  0  0  0  0  0  0  0  0  0
   -0.8383   -0.3651   28.2303 S   0  0  0  0  0  0  0  0  0  0  0  0
   -0.2538    0.5396   29.5601 C   0  0  0  0  0  0  0  0  0  0  0  0
   -0.4929    0.0397   30.7525 N   0  0  0  0  0  0  0  0  0  0  0  0
    0.2334   -3.1496   32.4418 H   0  0  0  0  0  0  0  0  0  0  0  0
   -1.6095   -4.0779   30.3624 H   0  0  0  0  0  0  0  0  0  0  0  0
    0.0952   -4.2985   30.4255 H   0  0  0  0  0  0  0  0  0  0  0  0
   -0.9746   -7.2270   29.8794 H   0  0  0  0  0  0  0  0  0  0  0  0
    2.5880   -5.3078   30.1486 H   0  0  0  0  0  0  0  0  0  0  0  0
    3.2955   -4.3850   33.7713 H   0  0  0  0  0  0  0  0  0  0  0  0
    1.5951   -4.9489   36.0702 H   0  0  0  0  0  0  0  0  0  0  0  0
    0.2123   -6.0290   35.7770 H   0  0  0  0  0  0  0  0  0  0  0  0
    3.9848   -7.9803   39.5698 H   0  0  0  0  0  0  0  0  0  0  0  0
    5.8793   -9.7166   40.4329 H   0  0  0  0  0  0  0  0  0  0  0  0
    6.8144  -10.9855   38.2116 H   0  0  0  0  0  0  0  0  0  0  0  0
    5.5439  -10.0465   36.2492 H   0  0  0  0  0  0  0  0  0  0  0  0
   -1.1388   -7.2583   33.1139 H   0  0  0  0  0  0  0  0  0  0  0  0
   -2.0487   -2.3575   28.9376 H   0  0  0  0  0  0  0  0  0  0  0  0
    0.2908    1.4644   29.4169 H   0  0  0  0  0  0  0  0  0  0  0  0
  1  2  2  0
  2  3  2  0
  2  4  1  0
  4  5  1  0
  5  6  1  0
  6  7  1  0
  7  8  2  0
  8  9  1  0
  9 10  1  0
 10 11  1  0
 10 12  2  0
 12 13  1  0
 13 14  1  0
 14 15  1  0
 15 16  2  0
 16 17  1  0
 17 18  2  0
 18 19  1  0
 19 20  2  0
 20 21  1  0
 21 22  2  0
 22 23  1  0
 18 24  1  0
 13 25  2  0
 25 26  1  0
  2 27  1  0
 27 28  2  0
 28 29  1  0
 29 30  1  0
 30 31  2  0
 26  6  2  0
 31 27  1  0
 25  9  1  0
 24 15  1  0
 23 19  1  0
  4 32  1  0
  5 33  1  0
  5 34  1  0
  7 35  1  0
 11 36  1  0
 12 37  1  0
 14 38  1  0
 14 39  1  0
 20 40  1  0
 21 41  1  0
 22 42  1  0
 23 43  1  0
 26 44  1  0
 28 45  1  0
 30 46  1  0
M  END
>  <Energy>  (27) 
120.664728551724

>  <compound_id>  (27) 
177

>  <target_id>  (27) 
1

>  <reference_id>  (27) 
197

>  <inspiration_ids>  (27) 
[197, 148]

>  <energy_score>  (27) 
-34.07075922169679

>  <distance_score>  (27) 
1.1580667450785938

>  <path>  (27) 
/opt/xchem-fragalysis-2/maxwin/BulkDock/SCRATCH/505737/C177-P197/C177-P197.minimised.mol

>  <scratch_subdir>  (27) 
/opt/xchem-fragalysis-2/maxwin/BulkDock/SCRATCH/505737/C177-P197

>  <fragmenstein_runtime>  (27) 
3.535383701324463

>  <fragmenstein_outcome>  (27) 
too moved

>  <fragmenstein_mode>  (27) 
expansion

>  <fragmenstein_error>  (27) 


$$$$
C177-P148
     RDKit          3D

 46 50  0  0  0  0  0  0  0  0999 V2000
   -1.4825   -1.0793   33.1078 O   0  0  0  0  0  0  0  0  0  0  0  0
   -1.7115   -1.9061   31.9480 S   0  0  0  0  0  0  0  0  0  0  0  0
   -3.0076   -2.4650   31.6277 O   0  0  0  0  0  0  0  0  0  0  0  0
   -0.6637   -3.2008   32.0403 N   0  0  0  0  0  0  0  0  0  0  0  0
   -0.7729   -4.1548   30.9501 C   0  0  0  0  0  0  0  0  0  0  0  0
   -0.9856   -5.5834   31.4918 C   0  0  0  0  0  0  0  0  0  0  0  0
   -0.1099   -6.4439   30.6488 C   0  0  0  0  0  0  0  0  0  0  0  0
    1.1635   -6.4155   30.8336 N   0  0  0  0  0  0  0  0  0  0  0  0
    1.4209   -5.8611   32.0572 N   0  0  0  0  0  0  0  0  0  0  0  0
    2.3753   -4.9141   32.2983 C   0  0  0  0  0  0  0  0  0  0  0  0
    3.0447   -4.3751   31.2916 O   0  0  0  0  0  0  0  0  0  0  0  0
    2.4180   -4.7404   33.6643 C   0  0  0  0  0  0  0  0  0  0  0  0
    1.3046   -5.4586   34.2154 C   0  0  0  0  0  0  0  0  0  0  0  0
    1.0983   -5.8652   35.6327 C   0  0  0  0  0  0  0  0  0  0  0  0
    1.9833   -7.0535   35.8115 C   0  0  0  0  0  0  0  0  0  0  0  0
    2.3663   -7.9097   34.8793 N   0  0  0  0  0  0  0  0  0  0  0  0
    3.4063   -8.6132   35.4091 N   0  0  0  0  0  0  0  0  0  0  0  0
    3.5334   -8.2177   36.6646 C   0  0  0  0  0  0  0  0  0  0  0  0
    4.4393   -8.8291   37.5705 C   0  0  0  0  0  0  0  0  0  0  0  0
    4.5563   -8.7080   38.9381 C   0  0  0  0  0  0  0  0  0  0  0  0
    5.5781   -9.5967   39.3546 C   0  0  0  0  0  0  0  0  0  0  0  0
    6.0636  -10.2258   38.2299 C   0  0  0  0  0  0  0  0  0  0  0  0
    5.3700   -9.7486   37.1505 N   0  0  0  0  0  0  0  0  0  0  0  0
    2.6584   -7.2074   36.9860 O   0  0  0  0  0  0  0  0  0  0  0  0
    0.5508   -5.8177   33.1228 C   0  0  0  0  0  0  0  0  0  0  0  0
   -0.8269   -5.9333   32.7932 C   0  0  0  0  0  0  0  0  0  0  0  0
   -1.2382   -0.9389   30.5620 C   0  0  0  0  0  0  0  0  0  0  0  0
   -1.5447   -1.2619   29.2529 C   0  0  0  0  0  0  0  0  0  0  0  0
   -0.8893   -0.0886   28.1884 S   0  0  0  0  0  0  0  0  0  0  0  0
   -0.2161    0.7299   29.5319 C   0  0  0  0  0  0  0  0  0  0  0  0
   -0.4281    0.1862   30.7105 N   0  0  0  0  0  0  0  0  0  0  0  0
    0.2800   -2.9277   32.3238 H   0  0  0  0  0  0  0  0  0  0  0  0
   -1.5919   -3.9151   30.2801 H   0  0  0  0  0  0  0  0  0  0  0  0
    0.1258   -4.0575   30.3283 H   0  0  0  0  0  0  0  0  0  0  0  0
   -0.5729   -6.9583   29.7952 H   0  0  0  0  0  0  0  0  0  0  0  0
    2.7727   -4.8466   30.4792 H   0  0  0  0  0  0  0  0  0  0  0  0
    3.1809   -4.1932   34.2041 H   0  0  0  0  0  0  0  0  0  0  0  0
    1.3828   -5.0567   36.3136 H   0  0  0  0  0  0  0  0  0  0  0  0
    0.0567   -6.1377   35.8290 H   0  0  0  0  0  0  0  0  0  0  0  0
    3.9542   -8.0720   39.5752 H   0  0  0  0  0  0  0  0  0  0  0  0
    5.9175   -9.7647   40.3691 H   0  0  0  0  0  0  0  0  0  0  0  0
    6.8363  -10.9736   38.1082 H   0  0  0  0  0  0  0  0  0  0  0  0
    5.4959  -10.0418   36.1893 H   0  0  0  0  0  0  0  0  0  0  0  0
   -1.4574   -5.4562   33.5417 H   0  0  0  0  0  0  0  0  0  0  0  0
   -2.1196   -2.0876   28.8598 H   0  0  0  0  0  0  0  0  0  0  0  0
    0.3548    1.6422   29.4083 H   0  0  0  0  0  0  0  0  0  0  0  0
  1  2  2  0
  2  3  2  0
  2  4  1  0
  4  5  1  0
  5  6  1  0
  6  7  1  0
  7  8  2  0
  8  9  1  0
  9 10  1  0
 10 11  1  0
 10 12  2  0
 12 13  1  0
 13 14  1  0
 14 15  1  0
 15 16  2  0
 16 17  1  0
 17 18  2  0
 18 19  1  0
 19 20  2  0
 20 21  1  0
 21 22  2  0
 22 23  1  0
 18 24  1  0
 13 25  2  0
 25 26  1  0
  2 27  1  0
 27 28  2  0
 28 29  1  0
 29 30  1  0
 30 31  2  0
 26  6  2  0
 31 27  1  0
 25  9  1  0
 24 15  1  0
 23 19  1  0
  4 32  1  0
  5 33  1  0
  5 34  1  0
  7 35  1  0
 11 36  1  0
 12 37  1  0
 14 38  1  0
 14 39  1  0
 20 40  1  0
 21 41  1  0
 22 42  1  0
 23 43  1  0
 26 44  1  0
 28 45  1  0
 30 46  1  0
M  END
>  <Energy>  (28) 
114.9938500413603

>  <compound_id>  (28) 
177

>  <target_id>  (28) 
1

>  <reference_id>  (28) 
148

>  <inspiration_ids>  (28) 
[197, 148]

>  <energy_score>  (28) 
-39.7416377320626

>  <distance_score>  (28) 
1.3376272245127643

>  <path>  (28) 
/opt/xchem-fragalysis-2/maxwin/BulkDock/SCRATCH/505737/C177-P148/C177-P148.minimised.mol

>  <scratch_subdir>  (28) 
/opt/xchem-fragalysis-2/maxwin/BulkDock/SCRATCH/505737/C177-P148

>  <fragmenstein_runtime>  (28) 
2.6798086166381836

>  <fragmenstein_outcome>  (28) 
too moved

>  <fragmenstein_mode>  (28) 
expansion

>  <fragmenstein_error>  (28) 


$$$$
C177-P197
     RDKit          3D

 46 50  0  0  0  0  0  0  0  0999 V2000
   -1.3711   -1.2402   33.1200 O   0  0  0  0  0  0  0  0  0  0  0  0
   -1.6674   -2.0452   31.9597 S   0  0  0  0  0  0  0  0  0  0  0  0
   -2.9876   -2.5681   31.6790 O   0  0  0  0  0  0  0  0  0  0  0  0
   -0.6326   -3.3547   31.9730 N   0  0  0  0  0  0  0  0  0  0  0  0
   -0.8217   -4.3135   30.8923 C   0  0  0  0  0  0  0  0  0  0  0  0
   -1.1558   -5.7139   31.4478 C   0  0  0  0  0  0  0  0  0  0  0  0
   -0.4885   -6.7310   30.5796 C   0  0  0  0  0  0  0  0  0  0  0  0
    0.7800   -6.9269   30.6764 N   0  0  0  0  0  0  0  0  0  0  0  0
    1.2183   -6.3109   31.8206 N   0  0  0  0  0  0  0  0  0  0  0  0
    2.2461   -5.4061   31.8545 C   0  0  0  0  0  0  0  0  0  0  0  0
    2.8496   -5.0556   30.7280 O   0  0  0  0  0  0  0  0  0  0  0  0
    2.4052   -5.0239   33.1704 C   0  0  0  0  0  0  0  0  0  0  0  0
    1.2823   -5.5380   33.8961 C   0  0  0  0  0  0  0  0  0  0  0  0
    1.0806   -5.6465   35.3645 C   0  0  0  0  0  0  0  0  0  0  0  0
    1.8610   -6.8586   35.7277 C   0  0  0  0  0  0  0  0  0  0  0  0
    2.1676   -7.8691   34.9305 N   0  0  0  0  0  0  0  0  0  0  0  0
    3.2349   -8.4889   35.4978 N   0  0  0  0  0  0  0  0  0  0  0  0
    3.4293   -7.9066   36.6674 C   0  0  0  0  0  0  0  0  0  0  0  0
    4.4071   -8.3511   37.5876 C   0  0  0  0  0  0  0  0  0  0  0  0
    4.6396   -7.9766   38.8919 C   0  0  0  0  0  0  0  0  0  0  0  0
    5.7232   -8.7559   39.3629 C   0  0  0  0  0  0  0  0  0  0  0  0
    6.1239   -9.5766   38.3316 C   0  0  0  0  0  0  0  0  0  0  0  0
    5.3161   -9.3240   37.2567 N   0  0  0  0  0  0  0  0  0  0  0  0
    2.5901   -6.8425   36.8756 O   0  0  0  0  0  0  0  0  0  0  0  0
    0.4545   -6.0581   32.9348 C   0  0  0  0  0  0  0  0  0  0  0  0
   -0.9486   -6.0714   32.7371 C   0  0  0  0  0  0  0  0  0  0  0  0
   -1.2402   -1.0609   30.5736 C   0  0  0  0  0  0  0  0  0  0  0  0
   -1.5212   -1.4247   29.2706 C   0  0  0  0  0  0  0  0  0  0  0  0
   -0.8764   -0.2749   28.1894 S   0  0  0  0  0  0  0  0  0  0  0  0
   -0.2816    0.6251   29.5167 C   0  0  0  0  0  0  0  0  0  0  0  0
   -0.5006    0.1144   30.7080 N   0  0  0  0  0  0  0  0  0  0  0  0
    0.3315   -3.1113   32.2059 H   0  0  0  0  0  0  0  0  0  0  0  0
   -1.6272   -4.0027   30.2344 H   0  0  0  0  0  0  0  0  0  0  0  0
    0.0726   -4.3090   30.2591 H   0  0  0  0  0  0  0  0  0  0  0  0
   -1.0925   -7.2159   29.8004 H   0  0  0  0  0  0  0  0  0  0  0  0
    2.4403   -5.5807   30.0105 H   0  0  0  0  0  0  0  0  0  0  0  0
    3.2293   -4.4409   33.5618 H   0  0  0  0  0  0  0  0  0  0  0  0
    1.4644   -4.7581   35.8757 H   0  0  0  0  0  0  0  0  0  0  0  0
    0.0275   -5.7767   35.6309 H   0  0  0  0  0  0  0  0  0  0  0  0
    4.0830   -7.2354   39.4520 H   0  0  0  0  0  0  0  0  0  0  0  0
    6.1628   -8.7250   40.3520 H   0  0  0  0  0  0  0  0  0  0  0  0
    6.9080  -10.3203   38.2758 H   0  0  0  0  0  0  0  0  0  0  0  0
    5.3662   -9.7847   36.3562 H   0  0  0  0  0  0  0  0  0  0  0  0
   -1.4603   -5.5130   33.5184 H   0  0  0  0  0  0  0  0  0  0  0  0
   -2.0615   -2.2801   28.8925 H   0  0  0  0  0  0  0  0  0  0  0  0
    0.2536    1.5551   29.3734 H   0  0  0  0  0  0  0  0  0  0  0  0
  1  2  2  0
  2  3  2  0
  2  4  1  0
  4  5  1  0
  5  6  1  0
  6  7  1  0
  7  8  2  0
  8  9  1  0
  9 10  1  0
 10 11  1  0
 10 12  2  0
 12 13  1  0
 13 14  1  0
 14 15  1  0
 15 16  2  0
 16 17  1  0
 17 18  2  0
 18 19  1  0
 19 20  2  0
 20 21  1  0
 21 22  2  0
 22 23  1  0
 18 24  1  0
 13 25  2  0
 25 26  1  0
  2 27  1  0
 27 28  2  0
 28 29  1  0
 29 30  1  0
 30 31  2  0
 26  6  2  0
 31 27  1  0
 25  9  1  0
 24 15  1  0
 23 19  1  0
  4 32  1  0
  5 33  1  0
  5 34  1  0
  7 35  1  0
 11 36  1  0
 12 37  1  0
 14 38  1  0
 14 39  1  0
 20 40  1  0
 21 41  1  0
 22 42  1  0
 23 43  1  0
 26 44  1  0
 28 45  1  0
 30 46  1  0
M  END
>  <Energy>  (29) 
120.03446875665684

>  <compound_id>  (29) 
177

>  <target_id>  (29) 
1

>  <reference_id>  (29) 
197

>  <inspiration_ids>  (29) 
[197, 149]

>  <energy_score>  (29) 
-34.70101901676793

>  <distance_score>  (29) 
1.2292603620396172

>  <path>  (29) 
/opt/xchem-fragalysis-2/maxwin/BulkDock/SCRATCH/505737/C177-P197/C177-P197.minimised.mol

>  <scratch_subdir>  (29) 
/opt/xchem-fragalysis-2/maxwin/BulkDock/SCRATCH/505737/C177-P197

>  <fragmenstein_runtime>  (29) 
3.4457345008850098

>  <fragmenstein_outcome>  (29) 
too moved

>  <fragmenstein_mode>  (29) 
expansion

>  <fragmenstein_error>  (29) 


$$$$
C177-P149
     RDKit          3D

 46 50  0  0  0  0  0  0  0  0999 V2000
   -1.3618   -0.9878   33.1457 O   0  0  0  0  0  0  0  0  0  0  0  0
   -1.6308   -1.7840   31.9732 S   0  0  0  0  0  0  0  0  0  0  0  0
   -2.9505   -2.2818   31.6496 O   0  0  0  0  0  0  0  0  0  0  0  0
   -0.6443   -3.1236   32.0496 N   0  0  0  0  0  0  0  0  0  0  0  0
   -0.8012   -4.0579   30.9521 C   0  0  0  0  0  0  0  0  0  0  0  0
   -1.0505   -5.4852   31.4730 C   0  0  0  0  0  0  0  0  0  0  0  0
   -0.1952   -6.3658   30.6353 C   0  0  0  0  0  0  0  0  0  0  0  0
    1.0738   -6.3773   30.8460 N   0  0  0  0  0  0  0  0  0  0  0  0
    1.3177   -5.8339   32.0798 N   0  0  0  0  0  0  0  0  0  0  0  0
    2.2542   -4.8692   32.3350 C   0  0  0  0  0  0  0  0  0  0  0  0
    2.9174   -4.3065   31.3370 O   0  0  0  0  0  0  0  0  0  0  0  0
    2.2653   -4.6824   33.7008 C   0  0  0  0  0  0  0  0  0  0  0  0
    1.1222   -5.3685   34.2243 C   0  0  0  0  0  0  0  0  0  0  0  0
    0.8094   -5.7371   35.6272 C   0  0  0  0  0  0  0  0  0  0  0  0
    1.6359   -6.9545   35.8503 C   0  0  0  0  0  0  0  0  0  0  0  0
    1.9737   -7.8639   34.9489 N   0  0  0  0  0  0  0  0  0  0  0  0
    3.0832   -8.4877   35.4368 N   0  0  0  0  0  0  0  0  0  0  0  0
    3.2886   -7.9960   36.6458 C   0  0  0  0  0  0  0  0  0  0  0  0
    4.3225   -8.4484   37.5005 C   0  0  0  0  0  0  0  0  0  0  0  0
    4.5820   -8.1443   38.8186 C   0  0  0  0  0  0  0  0  0  0  0  0
    5.7225   -8.8888   39.2029 C   0  0  0  0  0  0  0  0  0  0  0  0
    6.1295   -9.6179   38.1071 C   0  0  0  0  0  0  0  0  0  0  0  0
    5.2728   -9.3414   37.0758 N   0  0  0  0  0  0  0  0  0  0  0  0
    2.4041   -7.0025   36.9718 O   0  0  0  0  0  0  0  0  0  0  0  0
    0.4222   -5.7732   33.1185 C   0  0  0  0  0  0  0  0  0  0  0  0
   -0.9445   -5.8697   32.7658 C   0  0  0  0  0  0  0  0  0  0  0  0
   -1.1151   -0.8167   30.5987 C   0  0  0  0  0  0  0  0  0  0  0  0
   -1.2684   -1.1972   29.2771 C   0  0  0  0  0  0  0  0  0  0  0  0
   -0.6604    0.0204   28.2360 S   0  0  0  0  0  0  0  0  0  0  0  0
   -0.1829    0.9263   29.6055 C   0  0  0  0  0  0  0  0  0  0  0  0
   -0.4392    0.3892   30.7781 N   0  0  0  0  0  0  0  0  0  0  0  0
    0.3075   -2.9067   32.3519 H   0  0  0  0  0  0  0  0  0  0  0  0
   -1.6311   -3.7784   30.3097 H   0  0  0  0  0  0  0  0  0  0  0  0
    0.0860   -3.9821   30.3113 H   0  0  0  0  0  0  0  0  0  0  0  0
   -0.6628   -6.8555   29.7694 H   0  0  0  0  0  0  0  0  0  0  0  0
    2.6218   -4.7378   30.5113 H   0  0  0  0  0  0  0  0  0  0  0  0
    3.0029   -4.1159   34.2553 H   0  0  0  0  0  0  0  0  0  0  0  0
    1.0890   -4.9318   36.3136 H   0  0  0  0  0  0  0  0  0  0  0  0
   -0.2511   -5.9655   35.7699 H   0  0  0  0  0  0  0  0  0  0  0  0
    4.0076   -7.4696   39.4413 H   0  0  0  0  0  0  0  0  0  0  0  0
    6.1972   -8.8931   40.1762 H   0  0  0  0  0  0  0  0  0  0  0  0
    6.9527  -10.3070   37.9752 H   0  0  0  0  0  0  0  0  0  0  0  0
    5.3192   -9.7319   36.1422 H   0  0  0  0  0  0  0  0  0  0  0  0
   -1.5784   -5.3935   33.5122 H   0  0  0  0  0  0  0  0  0  0  0  0
   -1.7295   -2.0777   28.8541 H   0  0  0  0  0  0  0  0  0  0  0  0
    0.3026    1.8893   29.5038 H   0  0  0  0  0  0  0  0  0  0  0  0
  1  2  2  0
  2  3  2  0
  2  4  1  0
  4  5  1  0
  5  6  1  0
  6  7  1  0
  7  8  2  0
  8  9  1  0
  9 10  1  0
 10 11  1  0
 10 12  2  0
 12 13  1  0
 13 14  1  0
 14 15  1  0
 15 16  2  0
 16 17  1  0
 17 18  2  0
 18 19  1  0
 19 20  2  0
 20 21  1  0
 21 22  2  0
 22 23  1  0
 18 24  1  0
 13 25  2  0
 25 26  1  0
  2 27  1  0
 27 28  2  0
 28 29  1  0
 29 30  1  0
 30 31  2  0
 26  6  2  0
 31 27  1  0
 25  9  1  0
 24 15  1  0
 23 19  1  0
  4 32  1  0
  5 33  1  0
  5 34  1  0
  7 35  1  0
 11 36  1  0
 12 37  1  0
 14 38  1  0
 14 39  1  0
 20 40  1  0
 21 41  1  0
 22 42  1  0
 23 43  1  0
 26 44  1  0
 28 45  1  0
 30 46  1  0
M  END
>  <Energy>  (30) 
121.14807132010405

>  <compound_id>  (30) 
177

>  <target_id>  (30) 
1

>  <reference_id>  (30) 
149

>  <inspiration_ids>  (30) 
[197, 149]

>  <energy_score>  (30) 
-33.587416453319975

>  <distance_score>  (30) 
1.3499334883100236

>  <path>  (30) 
/opt/xchem-fragalysis-2/maxwin/BulkDock/SCRATCH/505737/C177-P149/C177-P149.minimised.mol

>  <scratch_subdir>  (30) 
/opt/xchem-fragalysis-2/maxwin/BulkDock/SCRATCH/505737/C177-P149

>  <fragmenstein_runtime>  (30) 
2.5416460037231445

>  <fragmenstein_outcome>  (30) 
too moved

>  <fragmenstein_mode>  (30) 
expansion

>  <fragmenstein_error>  (30) 


$$$$
C179-P197
     RDKit          3D

 36 36  0  0  0  0  0  0  0  0999 V2000
    2.2689   -4.9682   32.0757 C   0  0  0  0  0  0  0  0  0  0  0  0
    1.3126   -5.0445   30.8817 C   0  0  0  0  0  0  0  0  0  0  0  0
    0.3345   -6.2348   30.9306 C   0  0  0  0  0  0  0  0  0  0  0  0
   -0.3131   -6.3876   32.2850 C   0  0  0  0  0  0  0  0  0  0  0  0
   -1.1652   -7.6265   32.4474 C   0  0  0  0  0  0  0  0  0  0  0  0
   -1.3689   -7.9108   33.9415 C   0  0  0  0  0  0  0  0  0  0  0  0
   -1.5896   -6.7793   34.8198 N   0  0  0  0  0  0  0  0  0  0  0  0
    0.5835   -3.7219   30.6416 C   0  0  0  0  0  0  0  0  0  0  0  0
    0.0751   -3.1003   31.8780 N   0  0  0  0  0  0  0  0  0  0  0  0
   -1.3921   -2.2733   31.7625 S   0  0  0  0  0  0  0  0  0  0  0  0
   -1.5262   -1.4482   32.9396 O   0  0  0  0  0  0  0  0  0  0  0  0
   -2.3917   -3.2577   31.3999 O   0  0  0  0  0  0  0  0  0  0  0  0
   -1.2667   -1.1846   30.4044 C   0  0  0  0  0  0  0  0  0  0  0  0
   -1.5429   -1.5840   29.1120 C   0  0  0  0  0  0  0  0  0  0  0  0
   -1.1427   -0.3405   28.0223 S   0  0  0  0  0  0  0  0  0  0  0  0
   -0.6589    0.6444   29.3347 C   0  0  0  0  0  0  0  0  0  0  0  0
   -0.7416    0.1022   30.5292 N   0  0  0  0  0  0  0  0  0  0  0  0
    2.7007   -5.9465   32.2863 H   0  0  0  0  0  0  0  0  0  0  0  0
    3.0898   -4.2766   31.8567 H   0  0  0  0  0  0  0  0  0  0  0  0
    1.8012   -4.6308   33.0040 H   0  0  0  0  0  0  0  0  0  0  0  0
    1.9284   -5.2192   29.9878 H   0  0  0  0  0  0  0  0  0  0  0  0
   -0.4247   -6.1411   30.1493 H   0  0  0  0  0  0  0  0  0  0  0  0
    0.8778   -7.1532   30.6983 H   0  0  0  0  0  0  0  0  0  0  0  0
   -0.9341   -5.5132   32.4971 H   0  0  0  0  0  0  0  0  0  0  0  0
    0.4754   -6.4298   33.0436 H   0  0  0  0  0  0  0  0  0  0  0  0
   -0.6847   -8.4945   31.9857 H   0  0  0  0  0  0  0  0  0  0  0  0
   -2.1163   -7.5029   31.9314 H   0  0  0  0  0  0  0  0  0  0  0  0
   -0.4757   -8.3930   34.3292 H   0  0  0  0  0  0  0  0  0  0  0  0
   -2.2226   -8.5791   34.0485 H   0  0  0  0  0  0  0  0  0  0  0  0
   -1.5199   -7.0756   35.7934 H   0  0  0  0  0  0  0  0  0  0  0  0
   -0.8907   -6.0498   34.7095 H   0  0  0  0  0  0  0  0  0  0  0  0
    1.2808   -3.0059   30.1893 H   0  0  0  0  0  0  0  0  0  0  0  0
   -0.2168   -3.8897   29.9152 H   0  0  0  0  0  0  0  0  0  0  0  0
    0.0358   -3.6794   32.7133 H   0  0  0  0  0  0  0  0  0  0  0  0
   -1.9303   -2.5305   28.7632 H   0  0  0  0  0  0  0  0  0  0  0  0
   -0.2955    1.6517   29.1781 H   0  0  0  0  0  0  0  0  0  0  0  0
  1  2  1  0
  2  3  1  0
  3  4  1  0
  4  5  1  0
  5  6  1  0
  6  7  1  0
  2  8  1  0
  8  9  1  0
  9 10  1  0
 10 11  2  0
 10 12  2  0
 10 13  1  0
 13 14  2  0
 14 15  1  0
 15 16  1  0
 16 17  2  0
 17 13  1  0
  1 18  1  0
  1 19  1  0
  1 20  1  0
  2 21  1  0
  3 22  1  0
  3 23  1  0
  4 24  1  0
  4 25  1  0
  5 26  1  0
  5 27  1  0
  6 28  1  0
  6 29  1  0
  7 30  1  0
  7 31  1  0
  8 32  1  0
  8 33  1  0
  9 34  1  0
 14 35  1  0
 16 36  1  0
M  END
>  <Energy>  (31) 
15.118553361713968

>  <compound_id>  (31) 
179

>  <target_id>  (31) 
1

>  <reference_id>  (31) 
197

>  <inspiration_ids>  (31) 
[197, 152]

>  <energy_score>  (31) 
-45.28347294953505

>  <distance_score>  (31) 
1.0429896138783759

>  <path>  (31) 
/opt/xchem-fragalysis-2/maxwin/BulkDock/SCRATCH/505737/C179-P197/C179-P197.minimised.mol

>  <scratch_subdir>  (31) 
/opt/xchem-fragalysis-2/maxwin/BulkDock/SCRATCH/505737/C179-P197

>  <fragmenstein_runtime>  (31) 
3.1379334926605225

>  <fragmenstein_outcome>  (31) 
too moved

>  <fragmenstein_mode>  (31) 
expansion

>  <fragmenstein_error>  (31) 


$$$$
C179-P152
     RDKit          3D

 36 36  0  0  0  0  0  0  0  0999 V2000
    2.0206   -4.5878   32.8734 C   0  0  0  0  0  0  0  0  0  0  0  0
    1.5057   -4.7612   31.4387 C   0  0  0  0  0  0  0  0  0  0  0  0
    0.7004   -6.0551   31.3130 C   0  0  0  0  0  0  0  0  0  0  0  0
   -0.7200   -6.0181   31.8318 C   0  0  0  0  0  0  0  0  0  0  0  0
   -1.2212   -7.4118   32.1920 C   0  0  0  0  0  0  0  0  0  0  0  0
   -1.2339   -7.5963   33.7077 C   0  0  0  0  0  0  0  0  0  0  0  0
    0.0795   -7.4264   34.3299 N   0  0  0  0  0  0  0  0  0  0  0  0
    0.7620   -3.5330   30.9126 C   0  0  0  0  0  0  0  0  0  0  0  0
    0.0514   -2.8649   32.0087 N   0  0  0  0  0  0  0  0  0  0  0  0
   -1.4200   -2.1362   31.6778 S   0  0  0  0  0  0  0  0  0  0  0  0
   -1.7192   -1.2677   32.7931 O   0  0  0  0  0  0  0  0  0  0  0  0
   -2.3410   -3.1564   31.2272 O   0  0  0  0  0  0  0  0  0  0  0  0
   -1.1479   -1.0700   30.3178 C   0  0  0  0  0  0  0  0  0  0  0  0
   -1.3689   -1.4282   29.0023 C   0  0  0  0  0  0  0  0  0  0  0  0
   -0.9001   -0.1457   27.9665 S   0  0  0  0  0  0  0  0  0  0  0  0
   -0.4087    0.7625   29.3304 C   0  0  0  0  0  0  0  0  0  0  0  0
   -0.5371    0.1722   30.4983 N   0  0  0  0  0  0  0  0  0  0  0  0
    2.6554   -3.6980   32.9475 H   0  0  0  0  0  0  0  0  0  0  0  0
    1.2113   -4.4894   33.6032 H   0  0  0  0  0  0  0  0  0  0  0  0
    2.6269   -5.4442   33.1824 H   0  0  0  0  0  0  0  0  0  0  0  0
    2.3891   -4.8948   30.7992 H   0  0  0  0  0  0  0  0  0  0  0  0
    0.6863   -6.3771   30.2646 H   0  0  0  0  0  0  0  0  0  0  0  0
    1.2373   -6.8115   31.8762 H   0  0  0  0  0  0  0  0  0  0  0  0
   -1.3299   -5.5952   31.0457 H   0  0  0  0  0  0  0  0  0  0  0  0
   -0.8239   -5.3411   32.6853 H   0  0  0  0  0  0  0  0  0  0  0  0
   -0.6264   -8.1932   31.7084 H   0  0  0  0  0  0  0  0  0  0  0  0
   -2.2401   -7.5518   31.8245 H   0  0  0  0  0  0  0  0  0  0  0  0
   -1.6261   -8.5817   33.9236 H   0  0  0  0  0  0  0  0  0  0  0  0
   -1.9216   -6.8903   34.1756 H   0  0  0  0  0  0  0  0  0  0  0  0
    0.2769   -6.4250   34.3787 H   0  0  0  0  0  0  0  0  0  0  0  0
   -0.0089   -7.7131   35.3079 H   0  0  0  0  0  0  0  0  0  0  0  0
    1.4876   -2.8176   30.5072 H   0  0  0  0  0  0  0  0  0  0  0  0
    0.0930   -3.8194   30.0951 H   0  0  0  0  0  0  0  0  0  0  0  0
    0.6205   -2.2362   32.5789 H   0  0  0  0  0  0  0  0  0  0  0  0
   -1.7769   -2.3462   28.6016 H   0  0  0  0  0  0  0  0  0  0  0  0
   -0.0069    1.7632   29.2268 H   0  0  0  0  0  0  0  0  0  0  0  0
  1  2  1  0
  2  3  1  0
  3  4  1  0
  4  5  1  0
  5  6  1  0
  6  7  1  0
  2  8  1  0
  8  9  1  0
  9 10  1  0
 10 11  2  0
 10 12  2  0
 10 13  1  0
 13 14  2  0
 14 15  1  0
 15 16  1  0
 16 17  2  0
 17 13  1  0
  1 18  1  0
  1 19  1  0
  1 20  1  0
  2 21  1  0
  3 22  1  0
  3 23  1  0
  4 24  1  0
  4 25  1  0
  5 26  1  0
  5 27  1  0
  6 28  1  0
  6 29  1  0
  7 30  1  0
  7 31  1  0
  8 32  1  0
  8 33  1  0
  9 34  1  0
 14 35  1  0
 16 36  1  0
M  END
>  <Energy>  (32) 
9.6041171718161369

>  <compound_id>  (32) 
179

>  <target_id>  (32) 
1

>  <reference_id>  (32) 
152

>  <inspiration_ids>  (32) 
[197, 152]

>  <energy_score>  (32) 
-50.797909139433386

>  <distance_score>  (32) 
0.8955790261157038

>  <path>  (32) 
/opt/xchem-fragalysis-2/maxwin/BulkDock/SCRATCH/505737/C179-P152/C179-P152.minimised.mol

>  <scratch_subdir>  (32) 
/opt/xchem-fragalysis-2/maxwin/BulkDock/SCRATCH/505737/C179-P152

>  <fragmenstein_runtime>  (32) 
2.6177024841308594

>  <fragmenstein_outcome>  (32) 
acceptable

>  <fragmenstein_mode>  (32) 
expansion

>  <fragmenstein_error>  (32) 


$$$$
C180-P197
     RDKit          3D

 39 40  0  0  0  0  0  0  0  0999 V2000
   -1.5810   -6.3160   35.9705 O   0  0  0  0  0  0  0  0  0  0  0  0
   -0.2111   -5.4706   35.7588 S   0  0  0  0  0  0  0  0  0  0  0  0
   -0.6239   -4.0362   34.9041 C   0  0  0  0  0  0  0  0  0  0  0  0
   -0.6303   -4.0591   33.3790 C   0  0  0  0  0  0  0  0  0  0  0  0
    0.7353   -3.7257   32.7638 C   0  0  0  0  0  0  0  0  0  0  0  0
    0.7284   -3.6036   31.2355 C   0  0  0  0  0  0  0  0  0  0  0  0
   -0.0584   -4.5840   30.5877 O   0  0  0  0  0  0  0  0  0  0  0  0
    0.7892   -6.5834   34.8827 C   0  0  0  0  0  0  0  0  0  0  0  0
    0.2932   -7.1295   33.6029 C   0  0  0  0  0  0  0  0  0  0  0  0
    1.0127   -6.8584   32.4471 C   0  0  0  0  0  0  0  0  0  0  0  0
    0.4778   -7.1735   31.2008 C   0  0  0  0  0  0  0  0  0  0  0  0
   -0.7488   -7.7975   31.0982 C   0  0  0  0  0  0  0  0  0  0  0  0
   -1.4535   -8.1059   32.2482 C   0  0  0  0  0  0  0  0  0  0  0  0
   -0.9433   -7.7615   33.5021 C   0  0  0  0  0  0  0  0  0  0  0  0
    2.1623   -6.9890   35.3503 C   0  0  0  0  0  0  0  0  0  0  0  0
    2.6178   -6.0774   36.5042 C   0  0  0  0  0  0  0  0  0  0  0  0
    1.6164   -5.9789   37.6607 C   0  0  0  0  0  0  0  0  0  0  0  0
    0.4559   -5.2006   37.2675 N   0  0  0  0  0  0  0  0  0  0  0  0
   -1.6027   -3.7291   35.2820 H   0  0  0  0  0  0  0  0  0  0  0  0
    0.0710   -3.2620   35.2509 H   0  0  0  0  0  0  0  0  0  0  0  0
   -1.3164   -3.2656   33.0517 H   0  0  0  0  0  0  0  0  0  0  0  0
   -1.0578   -4.9807   32.9872 H   0  0  0  0  0  0  0  0  0  0  0  0
    1.4946   -4.4328   33.0924 H   0  0  0  0  0  0  0  0  0  0  0  0
    1.0808   -2.7621   33.1623 H   0  0  0  0  0  0  0  0  0  0  0  0
    1.7511   -3.6562   30.8484 H   0  0  0  0  0  0  0  0  0  0  0  0
    0.3198   -2.6234   30.9644 H   0  0  0  0  0  0  0  0  0  0  0  0
   -0.2122   -4.2788   29.6741 H   0  0  0  0  0  0  0  0  0  0  0  0
    1.9699   -6.3516   32.4839 H   0  0  0  0  0  0  0  0  0  0  0  0
    0.9948   -6.8802   30.2927 H   0  0  0  0  0  0  0  0  0  0  0  0
   -1.1226   -7.9911   30.1055 H   0  0  0  0  0  0  0  0  0  0  0  0
   -2.4201   -8.5876   32.1760 H   0  0  0  0  0  0  0  0  0  0  0  0
   -1.5255   -7.9956   34.3885 H   0  0  0  0  0  0  0  0  0  0  0  0
    2.8883   -6.9328   34.5356 H   0  0  0  0  0  0  0  0  0  0  0  0
    2.1112   -8.0271   35.6932 H   0  0  0  0  0  0  0  0  0  0  0  0
    2.8392   -5.0743   36.1158 H   0  0  0  0  0  0  0  0  0  0  0  0
    3.5639   -6.4728   36.8938 H   0  0  0  0  0  0  0  0  0  0  0  0
    1.3111   -6.9833   37.9762 H   0  0  0  0  0  0  0  0  0  0  0  0
    2.0931   -5.4934   38.5186 H   0  0  0  0  0  0  0  0  0  0  0  0
   -0.2779   -5.3135   37.9668 H   0  0  0  0  0  0  0  0  0  0  0  0
  1  2  2  0
  2  3  1  0
  3  4  1  0
  4  5  1  0
  5  6  1  0
  6  7  1  0
  2  8  2  0
  8  9  1  0
  9 10  2  0
 10 11  1  0
 11 12  2  0
 12 13  1  0
 13 14  2  0
  8 15  1  0
 15 16  1  0
 16 17  1  0
 17 18  1  0
 18  2  1  0
 14  9  1  0
  3 19  1  0
  3 20  1  0
  4 21  1  0
  4 22  1  0
  5 23  1  0
  5 24  1  0
  6 25  1  0
  6 26  1  0
  7 27  1  0
 10 28  1  0
 11 29  1  0
 12 30  1  0
 13 31  1  0
 14 32  1  0
 15 33  1  0
 15 34  1  0
 16 35  1  0
 16 36  1  0
 17 37  1  0
 17 38  1  0
 18 39  1  0
M  END
>  <Energy>  (33) 
23.942166703030608

>  <compound_id>  (33) 
180

>  <target_id>  (33) 
1

>  <reference_id>  (33) 
197

>  <inspiration_ids>  (33) 
[197, 153]

>  <energy_score>  (33) 
-31.672249793853943

>  <distance_score>  (33) 
2.050173343680715

>  <path>  (33) 
/opt/xchem-fragalysis-2/maxwin/BulkDock/SCRATCH/505737/C180-P197/C180-P197.minimised.mol

>  <scratch_subdir>  (33) 
/opt/xchem-fragalysis-2/maxwin/BulkDock/SCRATCH/505737/C180-P197

>  <fragmenstein_runtime>  (33) 
43.869977712631226

>  <fragmenstein_outcome>  (33) 
too moved

>  <fragmenstein_mode>  (33) 
expansion

>  <fragmenstein_error>  (33) 


$$$$
C180-P153
     RDKit          3D

 39 40  0  0  0  0  0  0  0  0999 V2000
   -1.6857   -6.1802   36.0443 O   0  0  0  0  0  0  0  0  0  0  0  0
   -0.2849   -5.3838   35.8428 S   0  0  0  0  0  0  0  0  0  0  0  0
   -0.6574   -3.9599   34.9535 C   0  0  0  0  0  0  0  0  0  0  0  0
   -0.6476   -3.9939   33.4285 C   0  0  0  0  0  0  0  0  0  0  0  0
    0.7184   -3.6347   32.8269 C   0  0  0  0  0  0  0  0  0  0  0  0
    0.7256   -3.4762   31.3017 C   0  0  0  0  0  0  0  0  0  0  0  0
   -0.0266   -4.4546   30.6120 O   0  0  0  0  0  0  0  0  0  0  0  0
    0.6941   -6.5536   35.0256 C   0  0  0  0  0  0  0  0  0  0  0  0
    0.2095   -7.0947   33.7477 C   0  0  0  0  0  0  0  0  0  0  0  0
    0.9151   -6.7606   32.6027 C   0  0  0  0  0  0  0  0  0  0  0  0
    0.3684   -7.0207   31.3533 C   0  0  0  0  0  0  0  0  0  0  0  0
   -0.8528   -7.6513   31.2383 C   0  0  0  0  0  0  0  0  0  0  0  0
   -1.5283   -8.0520   32.3797 C   0  0  0  0  0  0  0  0  0  0  0  0
   -1.0093   -7.7574   33.6420 C   0  0  0  0  0  0  0  0  0  0  0  0
    2.0261   -7.0239   35.5399 C   0  0  0  0  0  0  0  0  0  0  0  0
    2.4963   -6.1069   36.6822 C   0  0  0  0  0  0  0  0  0  0  0  0
    1.4672   -5.9271   37.8041 C   0  0  0  0  0  0  0  0  0  0  0  0
    0.3581   -5.0994   37.3611 N   0  0  0  0  0  0  0  0  0  0  0  0
    0.0389   -3.1889   35.3044 H   0  0  0  0  0  0  0  0  0  0  0  0
   -1.6404   -3.6381   35.3088 H   0  0  0  0  0  0  0  0  0  0  0  0
   -1.0615   -4.9206   33.0361 H   0  0  0  0  0  0  0  0  0  0  0  0
   -1.3424   -3.2118   33.0913 H   0  0  0  0  0  0  0  0  0  0  0  0
    1.4866   -4.3340   33.1503 H   0  0  0  0  0  0  0  0  0  0  0  0
    1.0473   -2.6737   33.2461 H   0  0  0  0  0  0  0  0  0  0  0  0
    1.7537   -3.4921   30.9262 H   0  0  0  0  0  0  0  0  0  0  0  0
    0.2985   -2.4975   31.0528 H   0  0  0  0  0  0  0  0  0  0  0  0
   -0.2696   -4.0765   29.7459 H   0  0  0  0  0  0  0  0  0  0  0  0
    1.8688   -6.2515   32.6591 H   0  0  0  0  0  0  0  0  0  0  0  0
    0.8745   -6.6845   30.4542 H   0  0  0  0  0  0  0  0  0  0  0  0
   -1.2402   -7.7748   30.2408 H   0  0  0  0  0  0  0  0  0  0  0  0
   -2.4825   -8.5586   32.2976 H   0  0  0  0  0  0  0  0  0  0  0  0
   -1.5664   -8.0430   34.5319 H   0  0  0  0  0  0  0  0  0  0  0  0
    2.7743   -7.0304   34.7435 H   0  0  0  0  0  0  0  0  0  0  0  0
    1.9060   -8.0473   35.9085 H   0  0  0  0  0  0  0  0  0  0  0  0
    2.7803   -5.1269   36.2760 H   0  0  0  0  0  0  0  0  0  0  0  0
    3.4086   -6.5399   37.1103 H   0  0  0  0  0  0  0  0  0  0  0  0
    1.1013   -6.9062   38.1346 H   0  0  0  0  0  0  0  0  0  0  0  0
    1.9434   -5.4455   38.6644 H   0  0  0  0  0  0  0  0  0  0  0  0
   -0.4004   -5.1749   38.0393 H   0  0  0  0  0  0  0  0  0  0  0  0
  1  2  2  0
  2  3  1  0
  3  4  1  0
  4  5  1  0
  5  6  1  0
  6  7  1  0
  2  8  2  0
  8  9  1  0
  9 10  2  0
 10 11  1  0
 11 12  2  0
 12 13  1  0
 13 14  2  0
  8 15  1  0
 15 16  1  0
 16 17  1  0
 17 18  1  0
 18  2  1  0
 14  9  1  0
  3 19  1  0
  3 20  1  0
  4 21  1  0
  4 22  1  0
  5 23  1  0
  5 24  1  0
  6 25  1  0
  6 26  1  0
  7 27  1  0
 10 28  1  0
 11 29  1  0
 12 30  1  0
 13 31  1  0
 14 32  1  0
 15 33  1  0
 15 34  1  0
 16 35  1  0
 16 36  1  0
 17 37  1  0
 17 38  1  0
 18 39  1  0
M  END
>  <Energy>  (34) 
25.406005020178505

>  <compound_id>  (34) 
180

>  <target_id>  (34) 
1

>  <reference_id>  (34) 
153

>  <inspiration_ids>  (34) 
[197, 153]

>  <energy_score>  (34) 
-30.208411476706573

>  <distance_score>  (34) 
1.979847891697604

>  <path>  (34) 
/opt/xchem-fragalysis-2/maxwin/BulkDock/SCRATCH/505737/C180-P153/C180-P153.minimised.mol

>  <scratch_subdir>  (34) 
/opt/xchem-fragalysis-2/maxwin/BulkDock/SCRATCH/505737/C180-P153

>  <fragmenstein_runtime>  (34) 
43.70004081726074

>  <fragmenstein_outcome>  (34) 
too moved

>  <fragmenstein_mode>  (34) 
expansion

>  <fragmenstein_error>  (34) 


$$$$
C181-P197
     RDKit          3D

 70 74  0  0  0  0  0  0  0  0999 V2000
   -0.2573   -6.6253   35.5150 C   0  0  0  0  0  0  0  0  0  0  0  0
   -0.3187   -6.7960   34.0279 C   0  0  0  0  0  0  0  0  0  0  0  0
   -1.2253   -7.6583   33.4584 C   0  0  0  0  0  0  0  0  0  0  0  0
   -1.2073   -7.7309   32.0872 C   0  0  0  0  0  0  0  0  0  0  0  0
   -2.0458   -8.5700   31.4143 O   0  0  0  0  0  0  0  0  0  0  0  0
   -0.3978   -7.0158   31.2999 N   0  0  0  0  0  0  0  0  0  0  0  0
    0.4435   -6.1884   31.9413 C   0  0  0  0  0  0  0  0  0  0  0  0
    1.4315   -5.4140   31.1251 C   0  0  0  0  0  0  0  0  0  0  0  0
    0.9282   -4.0569   30.5956 C   0  0  0  0  0  0  0  0  0  0  0  0
    2.0840   -3.4698   29.9116 N   0  0  0  0  0  0  0  0  0  0  0  0
    1.8474   -2.2927   29.0906 C   0  0  0  0  0  0  0  0  0  0  0  0
    1.0134   -2.4890   27.8150 C   0  0  0  0  0  0  0  0  0  0  0  0
    1.6378   -3.3641   26.7334 C   0  0  0  0  0  0  0  0  0  0  0  0
    0.7675   -3.3701   25.5480 N   0  0  0  0  0  0  0  0  0  0  0  0
    2.9778   -2.8687   26.3703 C   0  0  0  0  0  0  0  0  0  0  0  0
    3.0631   -1.6551   25.7546 O   0  0  0  0  0  0  0  0  0  0  0  0
    4.3930   -1.5035   25.5263 C   0  0  0  0  0  0  0  0  0  0  0  0
    5.1488   -2.4974   25.9335 N   0  0  0  0  0  0  0  0  0  0  0  0
    4.2495   -3.3594   26.5198 C   0  0  0  0  0  0  0  0  0  0  0  0
    4.6150   -4.6252   27.1201 C   0  0  0  0  0  0  0  0  0  0  0  0
    4.0818   -5.0468   28.0697 O   0  0  0  0  0  0  0  0  0  0  0  0
    5.7143   -5.2405   26.2371 N   0  0  0  0  0  0  0  0  0  0  0  0
    6.4144   -6.3891   26.3776 C   0  0  0  0  0  0  0  0  0  0  0  0
    6.5308   -7.1782   25.3039 C   0  0  0  0  0  0  0  0  0  0  0  0
    7.1257   -8.4060   25.3631 N   0  0  0  0  0  0  0  0  0  0  0  0
    7.7033   -8.9284   26.4924 C   0  0  0  0  0  0  0  0  0  0  0  0
    8.1978  -10.0486   26.5102 O   0  0  0  0  0  0  0  0  0  0  0  0
    7.6958   -8.0449   27.6906 C   0  0  0  0  0  0  0  0  0  0  0  0
    8.3882   -8.4454   28.8346 C   0  0  0  0  0  0  0  0  0  0  0  0
    8.4014   -7.6311   29.9655 C   0  0  0  0  0  0  0  0  0  0  0  0
    7.7420   -6.4065   29.9438 C   0  0  0  0  0  0  0  0  0  0  0  0
    7.0731   -5.9925   28.7894 C   0  0  0  0  0  0  0  0  0  0  0  0
    7.0253   -6.8100   27.6490 C   0  0  0  0  0  0  0  0  0  0  0  0
    0.5633   -3.2042   31.7159 N   0  0  0  0  0  0  0  0  0  0  0  0
   -0.9809   -2.5572   31.8172 S   0  0  0  0  0  0  0  0  0  0  0  0
   -1.0889   -1.8564   33.0774 O   0  0  0  0  0  0  0  0  0  0  0  0
   -1.9587   -3.5454   31.4076 O   0  0  0  0  0  0  0  0  0  0  0  0
   -1.0819   -1.2722   30.6272 C   0  0  0  0  0  0  0  0  0  0  0  0
   -1.6445   -1.4255   29.3778 C   0  0  0  0  0  0  0  0  0  0  0  0
   -1.3999   -0.0059   28.4483 S   0  0  0  0  0  0  0  0  0  0  0  0
   -0.5645    0.6988   29.7601 C   0  0  0  0  0  0  0  0  0  0  0  0
   -0.4513   -0.0402   30.8403 N   0  0  0  0  0  0  0  0  0  0  0  0
    0.5378   -6.0781   33.2819 N   0  0  0  0  0  0  0  0  0  0  0  0
    0.5708   -5.9677   35.7980 H   0  0  0  0  0  0  0  0  0  0  0  0
   -1.1876   -6.1805   35.8808 H   0  0  0  0  0  0  0  0  0  0  0  0
   -0.1047   -7.5932   36.0031 H   0  0  0  0  0  0  0  0  0  0  0  0
   -1.8964   -8.2440   34.0669 H   0  0  0  0  0  0  0  0  0  0  0  0
   -2.6657   -8.9828   32.0465 H   0  0  0  0  0  0  0  0  0  0  0  0
    1.7251   -6.0374   30.2714 H   0  0  0  0  0  0  0  0  0  0  0  0
    2.3366   -5.2746   31.7332 H   0  0  0  0  0  0  0  0  0  0  0  0
    0.0938   -4.2339   29.9102 H   0  0  0  0  0  0  0  0  0  0  0  0
    2.5765   -4.1786   29.3576 H   0  0  0  0  0  0  0  0  0  0  0  0
    2.8279   -1.8835   28.8211 H   0  0  0  0  0  0  0  0  0  0  0  0
    1.4088   -1.5069   29.7049 H   0  0  0  0  0  0  0  0  0  0  0  0
    0.8360   -1.4924   27.3927 H   0  0  0  0  0  0  0  0  0  0  0  0
    0.0381   -2.9141   28.0660 H   0  0  0  0  0  0  0  0  0  0  0  0
    1.7111   -4.3876   27.1087 H   0  0  0  0  0  0  0  0  0  0  0  0
    0.9876   -2.5448   24.9929 H   0  0  0  0  0  0  0  0  0  0  0  0
    1.0023   -4.1684   24.9697 H   0  0  0  0  0  0  0  0  0  0  0  0
    4.6900   -0.5994   25.0245 H   0  0  0  0  0  0  0  0  0  0  0  0
    6.0078   -4.5597   25.5349 H   0  0  0  0  0  0  0  0  0  0  0  0
    6.0763   -6.9292   24.3480 H   0  0  0  0  0  0  0  0  0  0  0  0
    6.9758   -9.0305   24.5700 H   0  0  0  0  0  0  0  0  0  0  0  0
    8.9276   -9.3883   28.8263 H   0  0  0  0  0  0  0  0  0  0  0  0
    8.9373   -7.9450   30.8571 H   0  0  0  0  0  0  0  0  0  0  0  0
    7.7669   -5.7595   30.8171 H   0  0  0  0  0  0  0  0  0  0  0  0
    6.6201   -5.0062   28.7945 H   0  0  0  0  0  0  0  0  0  0  0  0
    1.2923   -2.5440   31.9795 H   0  0  0  0  0  0  0  0  0  0  0  0
   -2.1305   -2.2946   28.9550 H   0  0  0  0  0  0  0  0  0  0  0  0
   -0.1463    1.6950   29.6926 H   0  0  0  0  0  0  0  0  0  0  0  0
  1  2  1  0
  2  3  2  0
  3  4  1  0
  4  5  1  0
  4  6  2  0
  6  7  1  0
  7  8  1  0
  8  9  1  0
  9 10  1  0
 10 11  1  0
 11 12  1  0
 12 13  1  0
 13 14  1  0
 13 15  1  0
 15 16  1  0
 16 17  1  0
 17 18  2  0
 18 19  1  0
 19 20  1  0
 20 21  2  0
 20 22  1  0
 22 23  1  0
 23 24  2  0
 24 25  1  0
 25 26  1  0
 26 27  2  0
 26 28  1  0
 28 29  2  0
 29 30  1  0
 30 31  2  0
 31 32  1  0
 32 33  2  0
  9 34  1  0
 34 35  1  0
 35 36  2  0
 35 37  2  0
 35 38  1  0
 38 39  2  0
 39 40  1  0
 40 41  1  0
 41 42  2  0
  7 43  2  0
 43  2  1  0
 19 15  2  0
 33 23  1  0
 42 38  1  0
 33 28  1  0
  1 44  1  0
  1 45  1  0
  1 46  1  0
  3 47  1  0
  5 48  1  0
  8 49  1  0
  8 50  1  0
  9 51  1  0
 10 52  1  0
 11 53  1  0
 11 54  1  0
 12 55  1  0
 12 56  1  0
 13 57  1  0
 14 58  1  0
 14 59  1  0
 17 60  1  0
 22 61  1  0
 24 62  1  0
 25 63  1  0
 29 64  1  0
 30 65  1  0
 31 66  1  0
 32 67  1  0
 34 68  1  0
 39 69  1  0
 41 70  1  0
M  END
>  <Energy>  (35) 
-11.207154584998115

>  <compound_id>  (35) 
181

>  <target_id>  (35) 
1

>  <reference_id>  (35) 
197

>  <inspiration_ids>  (35) 
[197, 154]

>  <energy_score>  (35) 
-90.8737528598572

>  <distance_score>  (35) 
0.43450608089314524

>  <path>  (35) 
/opt/xchem-fragalysis-2/maxwin/BulkDock/SCRATCH/505737/C181-P197/C181-P197.minimised.mol

>  <scratch_subdir>  (35) 
/opt/xchem-fragalysis-2/maxwin/BulkDock/SCRATCH/505737/C181-P197

>  <fragmenstein_runtime>  (35) 
6.734905242919922

>  <fragmenstein_outcome>  (35) 
acceptable

>  <fragmenstein_mode>  (35) 
expansion

>  <fragmenstein_error>  (35) 


$$$$
C181-P154
     RDKit          3D

 70 74  0  0  0  0  0  0  0  0999 V2000
   -0.0453   -6.6878   35.5436 C   0  0  0  0  0  0  0  0  0  0  0  0
   -0.1276   -6.8090   34.0526 C   0  0  0  0  0  0  0  0  0  0  0  0
   -1.0773   -7.6098   33.4674 C   0  0  0  0  0  0  0  0  0  0  0  0
   -1.0728   -7.6549   32.0950 C   0  0  0  0  0  0  0  0  0  0  0  0
   -1.9465   -8.4491   31.4126 O   0  0  0  0  0  0  0  0  0  0  0  0
   -0.2547   -6.9423   31.3168 N   0  0  0  0  0  0  0  0  0  0  0  0
    0.6274   -6.1729   31.9739 C   0  0  0  0  0  0  0  0  0  0  0  0
    1.5966   -5.3618   31.1738 C   0  0  0  0  0  0  0  0  0  0  0  0
    1.0733   -3.9781   30.7401 C   0  0  0  0  0  0  0  0  0  0  0  0
    2.2324   -3.2857   30.1710 N   0  0  0  0  0  0  0  0  0  0  0  0
    1.9712   -2.1346   29.3171 C   0  0  0  0  0  0  0  0  0  0  0  0
    1.2030   -2.3991   28.0127 C   0  0  0  0  0  0  0  0  0  0  0  0
    1.9532   -3.2971   27.0311 C   0  0  0  0  0  0  0  0  0  0  0  0
    1.1383   -3.6135   25.8740 N   0  0  0  0  0  0  0  0  0  0  0  0
    3.2149   -2.6803   26.5756 C   0  0  0  0  0  0  0  0  0  0  0  0
    3.1634   -1.5069   25.8821 O   0  0  0  0  0  0  0  0  0  0  0  0
    4.4567   -1.2910   25.5218 C   0  0  0  0  0  0  0  0  0  0  0  0
    5.3118   -2.2036   25.9297 N   0  0  0  0  0  0  0  0  0  0  0  0
    4.5253   -3.0815   26.6385 C   0  0  0  0  0  0  0  0  0  0  0  0
    4.9888   -4.3003   27.2707 C   0  0  0  0  0  0  0  0  0  0  0  0
    4.5919   -4.6331   28.3181 O   0  0  0  0  0  0  0  0  0  0  0  0
    5.9801   -4.9892   26.3124 N   0  0  0  0  0  0  0  0  0  0  0  0
    6.5832   -6.2018   26.3902 C   0  0  0  0  0  0  0  0  0  0  0  0
    6.6114   -6.9748   25.2961 C   0  0  0  0  0  0  0  0  0  0  0  0
    7.0892   -8.2560   25.3202 N   0  0  0  0  0  0  0  0  0  0  0  0
    7.6200   -8.8614   26.4327 C   0  0  0  0  0  0  0  0  0  0  0  0
    8.0125  -10.0218   26.4213 O   0  0  0  0  0  0  0  0  0  0  0  0
    7.6983   -8.0168   27.6558 C   0  0  0  0  0  0  0  0  0  0  0  0
    8.3429   -8.5160   28.7912 C   0  0  0  0  0  0  0  0  0  0  0  0
    8.4687   -7.7229   29.9311 C   0  0  0  0  0  0  0  0  0  0  0  0
    7.9629   -6.4291   29.9325 C   0  0  0  0  0  0  0  0  0  0  0  0
    7.3374   -5.9252   28.7912 C   0  0  0  0  0  0  0  0  0  0  0  0
    7.1706   -6.7151   27.6416 C   0  0  0  0  0  0  0  0  0  0  0  0
    0.6237   -3.2366   31.9069 N   0  0  0  0  0  0  0  0  0  0  0  0
   -0.9344   -2.6274   31.9752 S   0  0  0  0  0  0  0  0  0  0  0  0
   -1.1513   -2.0637   33.2882 O   0  0  0  0  0  0  0  0  0  0  0  0
   -1.8706   -3.5614   31.3821 O   0  0  0  0  0  0  0  0  0  0  0  0
   -0.9587   -1.2166   30.9413 C   0  0  0  0  0  0  0  0  0  0  0  0
   -1.5192   -1.1819   29.6825 C   0  0  0  0  0  0  0  0  0  0  0  0
   -1.2048    0.3434   28.9683 S   0  0  0  0  0  0  0  0  0  0  0  0
   -0.3172    0.8165   30.3408 C   0  0  0  0  0  0  0  0  0  0  0  0
   -0.2615   -0.0614   31.3128 N   0  0  0  0  0  0  0  0  0  0  0  0
    0.7541   -6.1157   33.3157 N   0  0  0  0  0  0  0  0  0  0  0  0
    0.7779   -6.0278   35.8352 H   0  0  0  0  0  0  0  0  0  0  0  0
   -0.9737   -6.2716   35.9450 H   0  0  0  0  0  0  0  0  0  0  0  0
    0.1303   -7.6698   35.9938 H   0  0  0  0  0  0  0  0  0  0  0  0
   -1.7776   -8.1618   34.0724 H   0  0  0  0  0  0  0  0  0  0  0  0
   -2.5065   -8.9270   32.0524 H   0  0  0  0  0  0  0  0  0  0  0  0
    1.8742   -5.9321   30.2787 H   0  0  0  0  0  0  0  0  0  0  0  0
    2.5143   -5.2543   31.7695 H   0  0  0  0  0  0  0  0  0  0  0  0
    0.2752   -4.1309   30.0080 H   0  0  0  0  0  0  0  0  0  0  0  0
    2.8424   -3.9414   29.6724 H   0  0  0  0  0  0  0  0  0  0  0  0
    2.9408   -1.6825   29.0765 H   0  0  0  0  0  0  0  0  0  0  0  0
    1.4674   -1.3664   29.8983 H   0  0  0  0  0  0  0  0  0  0  0  0
    1.0003   -1.4288   27.5421 H   0  0  0  0  0  0  0  0  0  0  0  0
    0.2269   -2.8436   28.2337 H   0  0  0  0  0  0  0  0  0  0  0  0
    2.1641   -4.2495   27.5268 H   0  0  0  0  0  0  0  0  0  0  0  0
    0.8951   -2.7571   25.3656 H   0  0  0  0  0  0  0  0  0  0  0  0
    1.6767   -4.1594   25.2166 H   0  0  0  0  0  0  0  0  0  0  0  0
    4.6480   -0.4080   24.9313 H   0  0  0  0  0  0  0  0  0  0  0  0
    6.1653   -4.3774   25.5165 H   0  0  0  0  0  0  0  0  0  0  0  0
    6.1758   -6.6664   24.3493 H   0  0  0  0  0  0  0  0  0  0  0  0
    6.8992   -8.8449   24.5051 H   0  0  0  0  0  0  0  0  0  0  0  0
    8.7646   -9.5174   28.7688 H   0  0  0  0  0  0  0  0  0  0  0  0
    8.9826   -8.1018   30.8101 H   0  0  0  0  0  0  0  0  0  0  0  0
    8.0806   -5.7973   30.8094 H   0  0  0  0  0  0  0  0  0  0  0  0
    7.0199   -4.8876   28.8128 H   0  0  0  0  0  0  0  0  0  0  0  0
    1.3227   -2.5868   32.2634 H   0  0  0  0  0  0  0  0  0  0  0  0
   -2.0456   -1.9662   29.1563 H   0  0  0  0  0  0  0  0  0  0  0  0
    0.1684    1.7827   30.4046 H   0  0  0  0  0  0  0  0  0  0  0  0
  1  2  1  0
  2  3  2  0
  3  4  1  0
  4  5  1  0
  4  6  2  0
  6  7  1  0
  7  8  1  0
  8  9  1  0
  9 10  1  0
 10 11  1  0
 11 12  1  0
 12 13  1  0
 13 14  1  0
 13 15  1  0
 15 16  1  0
 16 17  1  0
 17 18  2  0
 18 19  1  0
 19 20  1  0
 20 21  2  0
 20 22  1  0
 22 23  1  0
 23 24  2  0
 24 25  1  0
 25 26  1  0
 26 27  2  0
 26 28  1  0
 28 29  2  0
 29 30  1  0
 30 31  2  0
 31 32  1  0
 32 33  2  0
  9 34  1  0
 34 35  1  0
 35 36  2  0
 35 37  2  0
 35 38  1  0
 38 39  2  0
 39 40  1  0
 40 41  1  0
 41 42  2  0
  7 43  2  0
 43  2  1  0
 19 15  2  0
 33 23  1  0
 42 38  1  0
 33 28  1  0
  1 44  1  0
  1 45  1  0
  1 46  1  0
  3 47  1  0
  5 48  1  0
  8 49  1  0
  8 50  1  0
  9 51  1  0
 10 52  1  0
 11 53  1  0
 11 54  1  0
 12 55  1  0
 12 56  1  0
 13 57  1  0
 14 58  1  0
 14 59  1  0
 17 60  1  0
 22 61  1  0
 24 62  1  0
 25 63  1  0
 29 64  1  0
 30 65  1  0
 31 66  1  0
 32 67  1  0
 34 68  1  0
 39 69  1  0
 41 70  1  0
M  END
>  <Energy>  (36) 
-13.379179818648254

>  <compound_id>  (36) 
181

>  <target_id>  (36) 
1

>  <reference_id>  (36) 
154

>  <inspiration_ids>  (36) 
[197, 154]

>  <energy_score>  (36) 
-93.04577809350508

>  <distance_score>  (36) 
0.6424194308743584

>  <path>  (36) 
/opt/xchem-fragalysis-2/maxwin/BulkDock/SCRATCH/505737/C181-P154/C181-P154.minimised.mol

>  <scratch_subdir>  (36) 
/opt/xchem-fragalysis-2/maxwin/BulkDock/SCRATCH/505737/C181-P154

>  <fragmenstein_runtime>  (36) 
8.589674711227417

>  <fragmenstein_outcome>  (36) 
acceptable

>  <fragmenstein_mode>  (36) 
expansion

>  <fragmenstein_error>  (36) 


$$$$
C182-P197
     RDKit          3D

 41 44  0  0  0  0  0  0  0  0999 V2000
    0.3347   -6.2854   35.4086 C   0  0  0  0  0  0  0  0  0  0  0  0
   -0.0806   -6.7567   34.0632 C   0  0  0  0  0  0  0  0  0  0  0  0
   -1.0197   -7.7412   33.7973 C   0  0  0  0  0  0  0  0  0  0  0  0
   -1.0121   -7.9562   32.4224 C   0  0  0  0  0  0  0  0  0  0  0  0
   -1.5982   -8.9179   31.7030 O   0  0  0  0  0  0  0  0  0  0  0  0
   -0.2379   -7.0078   31.8279 C   0  0  0  0  0  0  0  0  0  0  0  0
   -0.0497   -6.7834   30.4969 N   0  0  0  0  0  0  0  0  0  0  0  0
    0.4906   -5.6434   30.2232 C   0  0  0  0  0  0  0  0  0  0  0  0
    1.0212   -4.6816   31.2081 C   0  0  0  0  0  0  0  0  0  0  0  0
    1.2426   -3.2929   30.7273 C   0  0  0  0  0  0  0  0  0  0  0  0
    0.5797   -2.3874   31.6819 N   0  0  0  0  0  0  0  0  0  0  0  0
   -1.0905   -2.1672   31.5978 S   0  0  0  0  0  0  0  0  0  0  0  0
   -1.4615   -1.2905   32.6835 O   0  0  0  0  0  0  0  0  0  0  0  0
   -1.7566   -3.4277   31.3526 O   0  0  0  0  0  0  0  0  0  0  0  0
   -1.2826   -1.2242   30.1528 C   0  0  0  0  0  0  0  0  0  0  0  0
   -1.5284   -1.7976   28.9251 C   0  0  0  0  0  0  0  0  0  0  0  0
   -1.3698   -0.6238   27.7071 S   0  0  0  0  0  0  0  0  0  0  0  0
   -1.0155    0.5569   28.8957 C   0  0  0  0  0  0  0  0  0  0  0  0
   -0.9336    0.1244   30.1331 N   0  0  0  0  0  0  0  0  0  0  0  0
    1.0888   -5.1049   32.4925 C   0  0  0  0  0  0  0  0  0  0  0  0
    1.9133   -4.2675   33.3762 C   0  0  0  0  0  0  0  0  0  0  0  0
    1.4097   -3.3646   34.3061 C   0  0  0  0  0  0  0  0  0  0  0  0
    2.1818   -2.4143   34.8967 N   0  0  0  0  0  0  0  0  0  0  0  0
    3.4794   -2.3918   34.5217 C   0  0  0  0  0  0  0  0  0  0  0  0
    3.9950   -3.2854   33.6043 C   0  0  0  0  0  0  0  0  0  0  0  0
    3.2324   -4.2336   33.0140 N   0  0  0  0  0  0  0  0  0  0  0  0
    0.3416   -6.2340   32.8409 N   0  0  0  0  0  0  0  0  0  0  0  0
    0.0792   -7.0298   36.1713 H   0  0  0  0  0  0  0  0  0  0  0  0
    1.4161   -6.1336   35.4635 H   0  0  0  0  0  0  0  0  0  0  0  0
   -0.1833   -5.3595   35.6721 H   0  0  0  0  0  0  0  0  0  0  0  0
   -1.5682   -8.2934   34.5453 H   0  0  0  0  0  0  0  0  0  0  0  0
   -1.0528   -9.0215   30.8975 H   0  0  0  0  0  0  0  0  0  0  0  0
    0.6304   -5.3545   29.1727 H   0  0  0  0  0  0  0  0  0  0  0  0
    2.3120   -3.0608   30.6865 H   0  0  0  0  0  0  0  0  0  0  0  0
    0.8584   -3.1243   29.7179 H   0  0  0  0  0  0  0  0  0  0  0  0
    1.0396   -1.4821   31.8065 H   0  0  0  0  0  0  0  0  0  0  0  0
   -1.7499   -2.8291   28.6952 H   0  0  0  0  0  0  0  0  0  0  0  0
   -0.8489    1.5925   28.6338 H   0  0  0  0  0  0  0  0  0  0  0  0
    0.3528   -3.3209   34.5509 H   0  0  0  0  0  0  0  0  0  0  0  0
    4.0973   -1.6352   34.9922 H   0  0  0  0  0  0  0  0  0  0  0  0
    5.0404   -3.2646   33.3187 H   0  0  0  0  0  0  0  0  0  0  0  0
  1  2  1  0
  2  3  2  0
  3  4  1  0
  4  5  1  0
  4  6  2  0
  6  7  1  0
  7  8  2  0
  8  9  1  0
  9 10  1  0
 10 11  1  0
 11 12  1  0
 12 13  2  0
 12 14  2  0
 12 15  1  0
 15 16  2  0
 16 17  1  0
 17 18  1  0
 18 19  2  0
  9 20  2  0
 20 21  1  0
 21 22  2  0
 22 23  1  0
 23 24  2  0
 24 25  1  0
 25 26  2  0
 20 27  1  0
 27  2  1  0
 27  6  1  0
 19 15  1  0
 26 21  1  0
  1 28  1  0
  1 29  1  0
  1 30  1  0
  3 31  1  0
  5 32  1  0
  8 33  1  0
 10 34  1  0
 10 35  1  0
 11 36  1  0
 16 37  1  0
 18 38  1  0
 22 39  1  0
 24 40  1  0
 25 41  1  0
M  END
>  <Energy>  (37) 
82.574856280939002

>  <compound_id>  (37) 
182

>  <target_id>  (37) 
1

>  <reference_id>  (37) 
197

>  <inspiration_ids>  (37) 
[197, 156]

>  <energy_score>  (37) 
-107.8204508463447

>  <distance_score>  (37) 
1.040768477440701

>  <path>  (37) 
/opt/xchem-fragalysis-2/maxwin/BulkDock/SCRATCH/505737/C182-P197/C182-P197.minimised.mol

>  <scratch_subdir>  (37) 
/opt/xchem-fragalysis-2/maxwin/BulkDock/SCRATCH/505737/C182-P197

>  <fragmenstein_runtime>  (37) 
3.386354923248291

>  <fragmenstein_outcome>  (37) 
too moved

>  <fragmenstein_mode>  (37) 
expansion

>  <fragmenstein_error>  (37) 


$$$$
C182-P156
     RDKit          3D

 41 44  0  0  0  0  0  0  0  0999 V2000
    0.3476   -6.2253   35.3872 C   0  0  0  0  0  0  0  0  0  0  0  0
   -0.0895   -6.7200   34.0569 C   0  0  0  0  0  0  0  0  0  0  0  0
   -0.9998   -7.7393   33.8260 C   0  0  0  0  0  0  0  0  0  0  0  0
   -1.0325   -7.9558   32.4522 C   0  0  0  0  0  0  0  0  0  0  0  0
   -1.5999   -8.9464   31.7580 O   0  0  0  0  0  0  0  0  0  0  0  0
   -0.3257   -6.9736   31.8295 C   0  0  0  0  0  0  0  0  0  0  0  0
   -0.2231   -6.7258   30.4945 N   0  0  0  0  0  0  0  0  0  0  0  0
    0.2906   -5.5778   30.2039 C   0  0  0  0  0  0  0  0  0  0  0  0
    0.9060   -4.6377   31.1607 C   0  0  0  0  0  0  0  0  0  0  0  0
    1.1712   -3.2639   30.6556 C   0  0  0  0  0  0  0  0  0  0  0  0
    0.5364   -2.3385   31.6051 N   0  0  0  0  0  0  0  0  0  0  0  0
   -1.1022   -1.9928   31.4213 S   0  0  0  0  0  0  0  0  0  0  0  0
   -1.5027   -1.2022   32.5617 O   0  0  0  0  0  0  0  0  0  0  0  0
   -1.8139   -3.1848   31.0181 O   0  0  0  0  0  0  0  0  0  0  0  0
   -1.1204   -0.8935   30.0697 C   0  0  0  0  0  0  0  0  0  0  0  0
   -1.4970   -1.2362   28.7890 C   0  0  0  0  0  0  0  0  0  0  0  0
   -1.1989    0.0827   27.7354 S   0  0  0  0  0  0  0  0  0  0  0  0
   -0.5649    0.9805   29.0432 C   0  0  0  0  0  0  0  0  0  0  0  0
   -0.5215    0.3621   30.2015 N   0  0  0  0  0  0  0  0  0  0  0  0
    1.0106   -5.0596   32.4436 C   0  0  0  0  0  0  0  0  0  0  0  0
    1.8681   -4.2324   33.3054 C   0  0  0  0  0  0  0  0  0  0  0  0
    1.3936   -3.3107   34.2328 C   0  0  0  0  0  0  0  0  0  0  0  0
    2.1935   -2.3776   34.8130 N   0  0  0  0  0  0  0  0  0  0  0  0
    3.4884   -2.3906   34.4292 C   0  0  0  0  0  0  0  0  0  0  0  0
    3.9741   -3.3020   33.5122 C   0  0  0  0  0  0  0  0  0  0  0  0
    3.1837   -4.2342   32.9317 N   0  0  0  0  0  0  0  0  0  0  0  0
    0.2807   -6.1918   32.8196 N   0  0  0  0  0  0  0  0  0  0  0  0
    0.1019   -6.9539   36.1682 H   0  0  0  0  0  0  0  0  0  0  0  0
    1.4303   -6.0760   35.4216 H   0  0  0  0  0  0  0  0  0  0  0  0
   -0.1633   -5.2928   35.6411 H   0  0  0  0  0  0  0  0  0  0  0  0
   -1.4992   -8.3102   34.5944 H   0  0  0  0  0  0  0  0  0  0  0  0
   -1.0453   -9.0733   30.9622 H   0  0  0  0  0  0  0  0  0  0  0  0
    0.3196   -5.2576   29.1540 H   0  0  0  0  0  0  0  0  0  0  0  0
    2.2466   -3.0638   30.6074 H   0  0  0  0  0  0  0  0  0  0  0  0
    0.7845   -3.0943   29.6460 H   0  0  0  0  0  0  0  0  0  0  0  0
    1.0506   -1.4676   31.7649 H   0  0  0  0  0  0  0  0  0  0  0  0
   -1.9176   -2.1622   28.4226 H   0  0  0  0  0  0  0  0  0  0  0  0
   -0.2105    1.9957   28.9109 H   0  0  0  0  0  0  0  0  0  0  0  0
    0.3397   -3.2403   34.4853 H   0  0  0  0  0  0  0  0  0  0  0  0
    4.1290   -1.6475   34.8909 H   0  0  0  0  0  0  0  0  0  0  0  0
    5.0176   -3.3085   33.2188 H   0  0  0  0  0  0  0  0  0  0  0  0
  1  2  1  0
  2  3  2  0
  3  4  1  0
  4  5  1  0
  4  6  2  0
  6  7  1  0
  7  8  2  0
  8  9  1  0
  9 10  1  0
 10 11  1  0
 11 12  1  0
 12 13  2  0
 12 14  2  0
 12 15  1  0
 15 16  2  0
 16 17  1  0
 17 18  1  0
 18 19  2  0
  9 20  2  0
 20 21  1  0
 21 22  2  0
 22 23  1  0
 23 24  2  0
 24 25  1  0
 25 26  2  0
 20 27  1  0
 27  2  1  0
 27  6  1  0
 19 15  1  0
 26 21  1  0
  1 28  1  0
  1 29  1  0
  1 30  1  0
  3 31  1  0
  5 32  1  0
  8 33  1  0
 10 34  1  0
 10 35  1  0
 11 36  1  0
 16 37  1  0
 18 38  1  0
 22 39  1  0
 24 40  1  0
 25 41  1  0
M  END
>  <Energy>  (38) 
79.518484382029811

>  <compound_id>  (38) 
182

>  <target_id>  (38) 
1

>  <reference_id>  (38) 
156

>  <inspiration_ids>  (38) 
[197, 156]

>  <energy_score>  (38) 
-110.87682274525667

>  <distance_score>  (38) 
1.0558743327313242

>  <path>  (38) 
/opt/xchem-fragalysis-2/maxwin/BulkDock/SCRATCH/505737/C182-P156/C182-P156.minimised.mol

>  <scratch_subdir>  (38) 
/opt/xchem-fragalysis-2/maxwin/BulkDock/SCRATCH/505737/C182-P156

>  <fragmenstein_runtime>  (38) 
3.3815231323242188

>  <fragmenstein_outcome>  (38) 
too moved

>  <fragmenstein_mode>  (38) 
expansion

>  <fragmenstein_error>  (38) 


$$$$
C182-P197
     RDKit          3D

 41 44  0  0  0  0  0  0  0  0999 V2000
    0.4068   -6.5209   35.3072 C   0  0  0  0  0  0  0  0  0  0  0  0
   -0.1317   -6.8886   33.9722 C   0  0  0  0  0  0  0  0  0  0  0  0
   -1.1637   -7.7795   33.7199 C   0  0  0  0  0  0  0  0  0  0  0  0
   -1.2905   -7.9055   32.3343 C   0  0  0  0  0  0  0  0  0  0  0  0
   -2.1284   -8.6650   31.6157 O   0  0  0  0  0  0  0  0  0  0  0  0
   -0.4157   -7.0430   31.7371 C   0  0  0  0  0  0  0  0  0  0  0  0
   -0.2328   -6.7847   30.4112 N   0  0  0  0  0  0  0  0  0  0  0  0
    0.3519   -5.6654   30.1553 C   0  0  0  0  0  0  0  0  0  0  0  0
    0.9151   -4.7366   31.1469 C   0  0  0  0  0  0  0  0  0  0  0  0
    1.1506   -3.3454   30.6727 C   0  0  0  0  0  0  0  0  0  0  0  0
    0.5253   -2.4311   31.6422 N   0  0  0  0  0  0  0  0  0  0  0  0
   -1.1354   -2.1633   31.5875 S   0  0  0  0  0  0  0  0  0  0  0  0
   -1.4666   -1.2802   32.6810 O   0  0  0  0  0  0  0  0  0  0  0  0
   -1.8398   -3.4046   31.3512 O   0  0  0  0  0  0  0  0  0  0  0  0
   -1.3199   -1.2099   30.1486 C   0  0  0  0  0  0  0  0  0  0  0  0
   -1.5540   -1.7780   28.9161 C   0  0  0  0  0  0  0  0  0  0  0  0
   -1.3733   -0.6027   27.7040 S   0  0  0  0  0  0  0  0  0  0  0  0
   -1.0303    0.5736   28.9000 C   0  0  0  0  0  0  0  0  0  0  0  0
   -0.9680    0.1381   30.1374 N   0  0  0  0  0  0  0  0  0  0  0  0
    0.9964   -5.1915   32.4196 C   0  0  0  0  0  0  0  0  0  0  0  0
    1.7765   -4.3216   33.3152 C   0  0  0  0  0  0  0  0  0  0  0  0
    1.2089   -3.4856   34.2717 C   0  0  0  0  0  0  0  0  0  0  0  0
    1.8876   -2.4519   34.8372 N   0  0  0  0  0  0  0  0  0  0  0  0
    3.1534   -2.2694   34.4034 C   0  0  0  0  0  0  0  0  0  0  0  0
    3.7351   -3.0979   33.4648 C   0  0  0  0  0  0  0  0  0  0  0  0
    3.0708   -4.1366   32.9085 N   0  0  0  0  0  0  0  0  0  0  0  0
    0.2452   -6.3289   32.7521 N   0  0  0  0  0  0  0  0  0  0  0  0
    1.4861   -6.3491   35.2728 H   0  0  0  0  0  0  0  0  0  0  0  0
   -0.0966   -5.6330   35.6985 H   0  0  0  0  0  0  0  0  0  0  0  0
    0.2376   -7.3343   36.0222 H   0  0  0  0  0  0  0  0  0  0  0  0
   -1.7236   -8.2978   34.4837 H   0  0  0  0  0  0  0  0  0  0  0  0
   -2.7800   -9.1232   32.1811 H   0  0  0  0  0  0  0  0  0  0  0  0
    0.4945   -5.3585   29.1121 H   0  0  0  0  0  0  0  0  0  0  0  0
    0.7491   -3.1645   29.6723 H   0  0  0  0  0  0  0  0  0  0  0  0
    2.2222   -3.1315   30.6032 H   0  0  0  0  0  0  0  0  0  0  0  0
    1.0174   -1.5469   31.7860 H   0  0  0  0  0  0  0  0  0  0  0  0
   -1.7740   -2.8084   28.6807 H   0  0  0  0  0  0  0  0  0  0  0  0
   -0.8551    1.6090   28.6429 H   0  0  0  0  0  0  0  0  0  0  0  0
    0.1605   -3.5541   34.5462 H   0  0  0  0  0  0  0  0  0  0  0  0
    3.6939   -1.4415   34.8484 H   0  0  0  0  0  0  0  0  0  0  0  0
    4.7579   -2.9525   33.1367 H   0  0  0  0  0  0  0  0  0  0  0  0
  1  2  1  0
  2  3  2  0
  3  4  1  0
  4  5  1  0
  4  6  2  0
  6  7  1  0
  7  8  2  0
  8  9  1  0
  9 10  1  0
 10 11  1  0
 11 12  1  0
 12 13  2  0
 12 14  2  0
 12 15  1  0
 15 16  2  0
 16 17  1  0
 17 18  1  0
 18 19  2  0
  9 20  2  0
 20 21  1  0
 21 22  2  0
 22 23  1  0
 23 24  2  0
 24 25  1  0
 25 26  2  0
 20 27  1  0
 27  2  1  0
 27  6  1  0
 19 15  1  0
 26 21  1  0
  1 28  1  0
  1 29  1  0
  1 30  1  0
  3 31  1  0
  5 32  1  0
  8 33  1  0
 10 34  1  0
 10 35  1  0
 11 36  1  0
 16 37  1  0
 18 38  1  0
 22 39  1  0
 24 40  1  0
 25 41  1  0
M  END
>  <Energy>  (39) 
88.313615085820089

>  <compound_id>  (39) 
182

>  <target_id>  (39) 
1

>  <reference_id>  (39) 
197

>  <inspiration_ids>  (39) 
[197, 157]

>  <energy_score>  (39) 
-135.20439734349551

>  <distance_score>  (39) 
0.9500915174024747

>  <path>  (39) 
/opt/xchem-fragalysis-2/maxwin/BulkDock/SCRATCH/505737/C182-P197/C182-P197.minimised.mol

>  <scratch_subdir>  (39) 
/opt/xchem-fragalysis-2/maxwin/BulkDock/SCRATCH/505737/C182-P197

>  <fragmenstein_runtime>  (39) 
1.6114346981048584

>  <fragmenstein_outcome>  (39) 
acceptable

>  <fragmenstein_mode>  (39) 
expansion

>  <fragmenstein_error>  (39) 


$$$$
C182-P157
     RDKit          3D

 41 44  0  0  0  0  0  0  0  0999 V2000
    0.5316   -6.4587   35.2488 C   0  0  0  0  0  0  0  0  0  0  0  0
   -0.0661   -6.8270   33.9400 C   0  0  0  0  0  0  0  0  0  0  0  0
   -1.0889   -7.7414   33.7409 C   0  0  0  0  0  0  0  0  0  0  0  0
   -1.2989   -7.8515   32.3660 C   0  0  0  0  0  0  0  0  0  0  0  0
   -2.1653   -8.6101   31.6847 O   0  0  0  0  0  0  0  0  0  0  0  0
   -0.4908   -6.9564   31.7282 C   0  0  0  0  0  0  0  0  0  0  0  0
   -0.4409   -6.6543   30.4019 N   0  0  0  0  0  0  0  0  0  0  0  0
    0.1110   -5.5243   30.1238 C   0  0  0  0  0  0  0  0  0  0  0  0
    0.8063   -4.6424   31.0742 C   0  0  0  0  0  0  0  0  0  0  0  0
    1.0724   -3.2612   30.5866 C   0  0  0  0  0  0  0  0  0  0  0  0
    0.4735   -2.3454   31.5666 N   0  0  0  0  0  0  0  0  0  0  0  0
   -1.1494   -1.9402   31.4050 S   0  0  0  0  0  0  0  0  0  0  0  0
   -1.5073   -1.1361   32.5505 O   0  0  0  0  0  0  0  0  0  0  0  0
   -1.9116   -3.1037   31.0120 O   0  0  0  0  0  0  0  0  0  0  0  0
   -1.1425   -0.8383   30.0547 C   0  0  0  0  0  0  0  0  0  0  0  0
   -1.5222   -1.1717   28.7723 C   0  0  0  0  0  0  0  0  0  0  0  0
   -1.2244    0.1516   27.7261 S   0  0  0  0  0  0  0  0  0  0  0  0
   -0.5465    1.0232   29.0290 C   0  0  0  0  0  0  0  0  0  0  0  0
   -0.5136    0.4027   30.1866 N   0  0  0  0  0  0  0  0  0  0  0  0
    0.9588   -5.1110   32.3362 C   0  0  0  0  0  0  0  0  0  0  0  0
    1.7854   -4.2565   33.2036 C   0  0  0  0  0  0  0  0  0  0  0  0
    1.2563   -3.4159   34.1790 C   0  0  0  0  0  0  0  0  0  0  0  0
    1.9672   -2.3995   34.7352 N   0  0  0  0  0  0  0  0  0  0  0  0
    3.2246   -2.2379   34.2706 C   0  0  0  0  0  0  0  0  0  0  0  0
    3.7663   -3.0696   33.3103 C   0  0  0  0  0  0  0  0  0  0  0  0
    3.0697   -4.0917   32.7622 N   0  0  0  0  0  0  0  0  0  0  0  0
    0.2305   -6.2522   32.7047 N   0  0  0  0  0  0  0  0  0  0  0  0
    1.6080   -6.2859   35.1645 H   0  0  0  0  0  0  0  0  0  0  0  0
    0.0465   -5.5703   35.6618 H   0  0  0  0  0  0  0  0  0  0  0  0
    0.3966   -7.2710   35.9722 H   0  0  0  0  0  0  0  0  0  0  0  0
   -1.5874   -8.2774   34.5353 H   0  0  0  0  0  0  0  0  0  0  0  0
   -2.7902   -9.0644   32.2829 H   0  0  0  0  0  0  0  0  0  0  0  0
    0.0818   -5.1587   29.0898 H   0  0  0  0  0  0  0  0  0  0  0  0
    0.6614   -3.0705   29.5905 H   0  0  0  0  0  0  0  0  0  0  0  0
    2.1469   -3.0693   30.5045 H   0  0  0  0  0  0  0  0  0  0  0  0
    1.0203   -1.5032   31.7615 H   0  0  0  0  0  0  0  0  0  0  0  0
   -1.9524   -2.0917   28.4018 H   0  0  0  0  0  0  0  0  0  0  0  0
   -0.1644    2.0281   28.8964 H   0  0  0  0  0  0  0  0  0  0  0  0
    0.2141   -3.4701   34.4798 H   0  0  0  0  0  0  0  0  0  0  0  0
    3.7917   -1.4231   34.7066 H   0  0  0  0  0  0  0  0  0  0  0  0
    4.7824   -2.9390   32.9561 H   0  0  0  0  0  0  0  0  0  0  0  0
  1  2  1  0
  2  3  2  0
  3  4  1  0
  4  5  1  0
  4  6  2  0
  6  7  1  0
  7  8  2  0
  8  9  1  0
  9 10  1  0
 10 11  1  0
 11 12  1  0
 12 13  2  0
 12 14  2  0
 12 15  1  0
 15 16  2  0
 16 17  1  0
 17 18  1  0
 18 19  2  0
  9 20  2  0
 20 21  1  0
 21 22  2  0
 22 23  1  0
 23 24  2  0
 24 25  1  0
 25 26  2  0
 20 27  1  0
 27  2  1  0
 27  6  1  0
 19 15  1  0
 26 21  1  0
  1 28  1  0
  1 29  1  0
  1 30  1  0
  3 31  1  0
  5 32  1  0
  8 33  1  0
 10 34  1  0
 10 35  1  0
 11 36  1  0
 16 37  1  0
 18 38  1  0
 22 39  1  0
 24 40  1  0
 25 41  1  0
M  END
>  <Energy>  (40) 
84.392255898928227

>  <compound_id>  (40) 
182

>  <target_id>  (40) 
1

>  <reference_id>  (40) 
157

>  <inspiration_ids>  (40) 
[197, 157]

>  <energy_score>  (40) 
-139.12575653038988

>  <distance_score>  (40) 
0.9738247375100011

>  <path>  (40) 
/opt/xchem-fragalysis-2/maxwin/BulkDock/SCRATCH/505737/C182-P157/C182-P157.minimised.mol

>  <scratch_subdir>  (40) 
/opt/xchem-fragalysis-2/maxwin/BulkDock/SCRATCH/505737/C182-P157

>  <fragmenstein_runtime>  (40) 
1.6953506469726562

>  <fragmenstein_outcome>  (40) 
acceptable

>  <fragmenstein_mode>  (40) 
expansion

>  <fragmenstein_error>  (40) 


$$$$
C183-P197
     RDKit          3D

 56 59  0  0  0  0  0  0  0  0999 V2000
    2.1893   -6.8303   36.2783 N   0  0  0  0  0  0  0  0  0  0  0  0
    0.8071   -6.4643   36.0976 C   0  0  0  0  0  0  0  0  0  0  0  0
    0.7827   -5.0681   35.9759 O   0  0  0  0  0  0  0  0  0  0  0  0
    0.0338   -6.7722   37.2676 N   0  0  0  0  0  0  0  0  0  0  0  0
    0.6889   -6.5060   38.5721 C   0  0  0  0  0  0  0  0  0  0  0  0
   -0.3110   -6.2394   39.6975 C   0  0  0  0  0  0  0  0  0  0  0  0
   -0.4348   -7.5156   40.3968 N   0  0  0  0  0  0  0  0  0  0  0  0
    0.8792   -8.1003   40.3785 N   0  0  0  0  0  0  0  0  0  0  0  0
    1.4679   -7.7308   39.0881 C   0  0  0  0  0  0  0  0  0  0  0  0
    0.2851   -7.1712   34.7866 C   0  0  0  0  0  0  0  0  0  0  0  0
   -1.1950   -7.0849   34.4400 C   0  0  0  0  0  0  0  0  0  0  0  0
   -1.2300   -7.0795   32.9199 C   0  0  0  0  0  0  0  0  0  0  0  0
   -1.5845   -5.7936   32.4851 O   0  0  0  0  0  0  0  0  0  0  0  0
    0.1171   -7.3355   32.4796 N   0  0  0  0  0  0  0  0  0  0  0  0
    0.3796   -6.8115   31.1211 C   0  0  0  0  0  0  0  0  0  0  0  0
    1.1456   -5.4632   30.9769 C   0  0  0  0  0  0  0  0  0  0  0  0
    0.2347   -4.2627   30.6305 C   0  0  0  0  0  0  0  0  0  0  0  0
    0.0315   -3.3168   31.7476 N   0  0  0  0  0  0  0  0  0  0  0  0
   -1.3378   -2.3350   31.7345 S   0  0  0  0  0  0  0  0  0  0  0  0
   -1.2651   -1.4886   32.9039 O   0  0  0  0  0  0  0  0  0  0  0  0
   -2.4908   -3.1682   31.4692 O   0  0  0  0  0  0  0  0  0  0  0  0
   -1.2037   -1.2767   30.3557 C   0  0  0  0  0  0  0  0  0  0  0  0
   -1.4382   -1.7204   29.0700 C   0  0  0  0  0  0  0  0  0  0  0  0
   -1.1151   -0.4734   27.9582 S   0  0  0  0  0  0  0  0  0  0  0  0
   -0.7080    0.5667   29.2552 C   0  0  0  0  0  0  0  0  0  0  0  0
   -0.7681    0.0450   30.4603 N   0  0  0  0  0  0  0  0  0  0  0  0
    2.0109   -5.2094   32.2020 C   0  0  0  0  0  0  0  0  0  0  0  0
    1.1687   -5.4101   33.3753 N   0  0  0  0  0  0  0  0  0  0  0  0
    0.9933   -6.8311   33.5088 N   0  0  0  0  0  0  0  0  0  0  0  0
    2.5965   -6.0884   36.8436 H   0  0  0  0  0  0  0  0  0  0  0  0
    2.6395   -6.7143   35.3718 H   0  0  0  0  0  0  0  0  0  0  0  0
   -0.0542   -4.8439   36.4228 H   0  0  0  0  0  0  0  0  0  0  0  0
   -0.1807   -7.7706   37.2588 H   0  0  0  0  0  0  0  0  0  0  0  0
    1.3360   -5.6218   38.5121 H   0  0  0  0  0  0  0  0  0  0  0  0
   -1.2720   -5.8613   39.3385 H   0  0  0  0  0  0  0  0  0  0  0  0
    0.0962   -5.4840   40.3824 H   0  0  0  0  0  0  0  0  0  0  0  0
   -0.7677   -7.3604   41.3525 H   0  0  0  0  0  0  0  0  0  0  0  0
    0.8229   -9.1292   40.4263 H   0  0  0  0  0  0  0  0  0  0  0  0
    2.5279   -7.4891   39.2213 H   0  0  0  0  0  0  0  0  0  0  0  0
    1.4178   -8.5807   38.3997 H   0  0  0  0  0  0  0  0  0  0  0  0
    0.4787   -8.2321   34.9651 H   0  0  0  0  0  0  0  0  0  0  0  0
   -1.7230   -7.9558   34.8413 H   0  0  0  0  0  0  0  0  0  0  0  0
   -1.6303   -6.1824   34.8741 H   0  0  0  0  0  0  0  0  0  0  0  0
   -1.9297   -7.8143   32.5132 H   0  0  0  0  0  0  0  0  0  0  0  0
   -0.9379   -5.2287   32.9434 H   0  0  0  0  0  0  0  0  0  0  0  0
   -0.5417   -6.7936   30.5230 H   0  0  0  0  0  0  0  0  0  0  0  0
    0.9382   -7.5852   30.6000 H   0  0  0  0  0  0  0  0  0  0  0  0
    1.8154   -5.5891   30.1145 H   0  0  0  0  0  0  0  0  0  0  0  0
   -0.7164   -4.6066   30.2235 H   0  0  0  0  0  0  0  0  0  0  0  0
    0.7241   -3.6924   29.8308 H   0  0  0  0  0  0  0  0  0  0  0  0
    0.1908   -3.6795   32.6893 H   0  0  0  0  0  0  0  0  0  0  0  0
   -1.7706   -2.6941   28.7413 H   0  0  0  0  0  0  0  0  0  0  0  0
   -0.4112    1.5925   29.0806 H   0  0  0  0  0  0  0  0  0  0  0  0
    2.8745   -5.8698   32.2406 H   0  0  0  0  0  0  0  0  0  0  0  0
    2.4197   -4.1923   32.1913 H   0  0  0  0  0  0  0  0  0  0  0  0
    1.6312   -5.0151   34.2079 H   0  0  0  0  0  0  0  0  0  0  0  0
  1  2  1  0
  2  3  1  0
  2  4  1  0
  4  5  1  0
  5  6  1  0
  6  7  1  0
  7  8  1  0
  8  9  1  0
  2 10  1  0
 10 11  1  0
 11 12  1  0
 12 13  1  0
 12 14  1  0
 14 15  1  0
 15 16  1  0
 16 17  1  0
 17 18  1  0
 18 19  1  0
 19 20  2  0
 19 21  2  0
 19 22  1  0
 22 23  2  0
 23 24  1  0
 24 25  1  0
 25 26  2  0
 16 27  1  0
 27 28  1  0
 28 29  1  0
  9  5  1  0
 29 10  1  0
 29 14  1  0
 26 22  1  0
  1 30  1  0
  1 31  1  0
  3 32  1  0
  4 33  1  0
  5 34  1  0
  6 35  1  0
  6 36  1  0
  7 37  1  0
  8 38  1  0
  9 39  1  0
  9 40  1  0
 10 41  1  0
 11 42  1  0
 11 43  1  0
 12 44  1  0
 13 45  1  0
 15 46  1  0
 15 47  1  0
 16 48  1  0
 17 49  1  0
 17 50  1  0
 18 51  1  0
 23 52  1  0
 25 53  1  0
 27 54  1  0
 27 55  1  0
 28 56  1  0
M  END
>  <Energy>  (41) 
-14.952861284506991

>  <compound_id>  (41) 
183

>  <target_id>  (41) 
1

>  <reference_id>  (41) 
197

>  <inspiration_ids>  (41) 
[197, 158]

>  <energy_score>  (41) 
-121.10082902672218

>  <distance_score>  (41) 
1.38853141301283

>  <path>  (41) 
/opt/xchem-fragalysis-2/maxwin/BulkDock/SCRATCH/505737/C183-P197/C183-P197.minimised.mol

>  <scratch_subdir>  (41) 
/opt/xchem-fragalysis-2/maxwin/BulkDock/SCRATCH/505737/C183-P197

>  <fragmenstein_runtime>  (41) 
3.7428386211395264

>  <fragmenstein_outcome>  (41) 
too moved

>  <fragmenstein_mode>  (41) 
expansion

>  <fragmenstein_error>  (41) 


$$$$
C183-P158
     RDKit          3D

 56 59  0  0  0  0  0  0  0  0999 V2000
   -1.0808   -8.3098   36.2711 N   0  0  0  0  0  0  0  0  0  0  0  0
   -0.1479   -7.2757   35.9871 C   0  0  0  0  0  0  0  0  0  0  0  0
    1.1652   -7.7744   36.0364 O   0  0  0  0  0  0  0  0  0  0  0  0
   -0.3682   -6.3211   37.0520 N   0  0  0  0  0  0  0  0  0  0  0  0
    0.4232   -6.4734   38.2846 C   0  0  0  0  0  0  0  0  0  0  0  0
   -0.2559   -5.7845   39.4743 C   0  0  0  0  0  0  0  0  0  0  0  0
    0.2412   -6.4435   40.6957 N   0  0  0  0  0  0  0  0  0  0  0  0
    1.1328   -7.5045   40.2722 N   0  0  0  0  0  0  0  0  0  0  0  0
    0.7314   -7.8370   38.8971 C   0  0  0  0  0  0  0  0  0  0  0  0
   -0.4231   -6.6503   34.5587 C   0  0  0  0  0  0  0  0  0  0  0  0
   -1.6034   -7.2073   33.7497 C   0  0  0  0  0  0  0  0  0  0  0  0
   -1.0204   -7.7640   32.4761 C   0  0  0  0  0  0  0  0  0  0  0  0
   -1.8972   -7.7166   31.3726 O   0  0  0  0  0  0  0  0  0  0  0  0
    0.2084   -7.0016   32.2899 N   0  0  0  0  0  0  0  0  0  0  0  0
   -0.0656   -5.6949   31.6753 C   0  0  0  0  0  0  0  0  0  0  0  0
    1.1720   -4.8120   31.7486 C   0  0  0  0  0  0  0  0  0  0  0  0
    0.9038   -3.4470   31.1311 C   0  0  0  0  0  0  0  0  0  0  0  0
    0.1631   -2.6043   32.0781 N   0  0  0  0  0  0  0  0  0  0  0  0
   -1.3522   -2.0319   31.6297 S   0  0  0  0  0  0  0  0  0  0  0  0
   -1.7671   -1.1065   32.6571 O   0  0  0  0  0  0  0  0  0  0  0  0
   -2.1637   -3.1549   31.2169 O   0  0  0  0  0  0  0  0  0  0  0  0
   -1.0589   -1.0584   30.2090 C   0  0  0  0  0  0  0  0  0  0  0  0
   -1.1958   -1.5309   28.9196 C   0  0  0  0  0  0  0  0  0  0  0  0
   -0.5908   -0.3724   27.8126 S   0  0  0  0  0  0  0  0  0  0  0  0
   -0.2228    0.6694   29.1185 C   0  0  0  0  0  0  0  0  0  0  0  0
   -0.4643    0.2011   30.3229 N   0  0  0  0  0  0  0  0  0  0  0  0
    1.6111   -4.7098   33.2078 C   0  0  0  0  0  0  0  0  0  0  0  0
    1.8218   -6.0243   33.8102 N   0  0  0  0  0  0  0  0  0  0  0  0
    0.7037   -6.8697   33.6234 N   0  0  0  0  0  0  0  0  0  0  0  0
   -0.7290   -8.8600   37.0556 H   0  0  0  0  0  0  0  0  0  0  0  0
   -1.0711   -9.0519   35.5624 H   0  0  0  0  0  0  0  0  0  0  0  0
    1.6556   -7.1655   35.4506 H   0  0  0  0  0  0  0  0  0  0  0  0
   -0.2370   -5.3764   36.7073 H   0  0  0  0  0  0  0  0  0  0  0  0
    1.3882   -5.9737   38.1100 H   0  0  0  0  0  0  0  0  0  0  0  0
   -1.3434   -5.9047   39.4427 H   0  0  0  0  0  0  0  0  0  0  0  0
   -0.0401   -4.7102   39.4858 H   0  0  0  0  0  0  0  0  0  0  0  0
    0.7381   -5.7580   41.2703 H   0  0  0  0  0  0  0  0  0  0  0  0
    1.0101   -8.3398   40.8518 H   0  0  0  0  0  0  0  0  0  0  0  0
    1.5403   -8.3666   38.3901 H   0  0  0  0  0  0  0  0  0  0  0  0
   -0.1472   -8.4792   38.9505 H   0  0  0  0  0  0  0  0  0  0  0  0
   -0.6213   -5.5757   34.6768 H   0  0  0  0  0  0  0  0  0  0  0  0
   -2.2659   -7.9214   34.2399 H   0  0  0  0  0  0  0  0  0  0  0  0
   -2.2084   -6.3554   33.4866 H   0  0  0  0  0  0  0  0  0  0  0  0
   -0.8027   -8.8115   32.6204 H   0  0  0  0  0  0  0  0  0  0  0  0
   -2.7676   -7.9682   31.7431 H   0  0  0  0  0  0  0  0  0  0  0  0
   -0.9102   -5.1852   32.1488 H   0  0  0  0  0  0  0  0  0  0  0  0
   -0.3224   -5.8465   30.6202 H   0  0  0  0  0  0  0  0  0  0  0  0
    1.9600   -5.2794   31.1539 H   0  0  0  0  0  0  0  0  0  0  0  0
    0.3867   -3.5609   30.1741 H   0  0  0  0  0  0  0  0  0  0  0  0
    1.8547   -2.9443   30.9173 H   0  0  0  0  0  0  0  0  0  0  0  0
    0.6977   -1.8352   32.4908 H   0  0  0  0  0  0  0  0  0  0  0  0
   -1.5848   -2.4801   28.5803 H   0  0  0  0  0  0  0  0  0  0  0  0
    0.2083    1.6478   28.9475 H   0  0  0  0  0  0  0  0  0  0  0  0
    2.5507   -4.1474   33.2695 H   0  0  0  0  0  0  0  0  0  0  0  0
    0.8918   -4.1579   33.8231 H   0  0  0  0  0  0  0  0  0  0  0  0
    2.6440   -6.4298   33.3713 H   0  0  0  0  0  0  0  0  0  0  0  0
  1  2  1  0
  2  3  1  0
  2  4  1  0
  4  5  1  0
  5  6  1  0
  6  7  1  0
  7  8  1  0
  8  9  1  0
  2 10  1  0
 10 11  1  0
 11 12  1  0
 12 13  1  0
 12 14  1  0
 14 15  1  0
 15 16  1  0
 16 17  1  0
 17 18  1  0
 18 19  1  0
 19 20  2  0
 19 21  2  0
 19 22  1  0
 22 23  2  0
 23 24  1  0
 24 25  1  0
 25 26  2  0
 16 27  1  0
 27 28  1  0
 28 29  1  0
  9  5  1  0
 29 10  1  0
 29 14  1  0
 26 22  1  0
  1 30  1  0
  1 31  1  0
  3 32  1  0
  4 33  1  0
  5 34  1  0
  6 35  1  0
  6 36  1  0
  7 37  1  0
  8 38  1  0
  9 39  1  0
  9 40  1  0
 10 41  1  0
 11 42  1  0
 11 43  1  0
 12 44  1  0
 13 45  1  0
 15 46  1  0
 15 47  1  0
 16 48  1  0
 17 49  1  0
 17 50  1  0
 18 51  1  0
 23 52  1  0
 25 53  1  0
 27 54  1  0
 27 55  1  0
 28 56  1  0
M  END
>  <Energy>  (42) 
-19.511352066638434

>  <compound_id>  (42) 
183

>  <target_id>  (42) 
1

>  <reference_id>  (42) 
158

>  <inspiration_ids>  (42) 
[197, 158]

>  <energy_score>  (42) 
-125.65931980885426

>  <distance_score>  (42) 
1.4685876212745674

>  <path>  (42) 
/opt/xchem-fragalysis-2/maxwin/BulkDock/SCRATCH/505737/C183-P158/C183-P158.minimised.mol

>  <scratch_subdir>  (42) 
/opt/xchem-fragalysis-2/maxwin/BulkDock/SCRATCH/505737/C183-P158

>  <fragmenstein_runtime>  (42) 
3.615795850753784

>  <fragmenstein_outcome>  (42) 
too moved

>  <fragmenstein_mode>  (42) 
expansion

>  <fragmenstein_error>  (42) 


$$$$
C183-P197
     RDKit          3D

 56 59  0  0  0  0  0  0  0  0999 V2000
    1.9393   -7.5966   35.5730 N   0  0  0  0  0  0  0  0  0  0  0  0
    0.9743   -6.5846   35.9204 C   0  0  0  0  0  0  0  0  0  0  0  0
    1.7124   -5.4124   36.1705 O   0  0  0  0  0  0  0  0  0  0  0  0
    0.2559   -6.9521   37.1177 N   0  0  0  0  0  0  0  0  0  0  0  0
    1.0226   -6.9379   38.3812 C   0  0  0  0  0  0  0  0  0  0  0  0
    0.1385   -7.1609   39.6070 C   0  0  0  0  0  0  0  0  0  0  0  0
    1.0783   -7.5412   40.6631 N   0  0  0  0  0  0  0  0  0  0  0  0
    2.0224   -8.4380   40.0079 N   0  0  0  0  0  0  0  0  0  0  0  0
    2.0794   -8.0234   38.5934 C   0  0  0  0  0  0  0  0  0  0  0  0
   -0.0041   -6.2996   34.7167 C   0  0  0  0  0  0  0  0  0  0  0  0
   -0.9540   -7.4330   34.3060 C   0  0  0  0  0  0  0  0  0  0  0  0
   -1.1191   -7.2799   32.7969 C   0  0  0  0  0  0  0  0  0  0  0  0
   -0.8047   -8.4441   32.0701 O   0  0  0  0  0  0  0  0  0  0  0  0
   -0.2883   -6.1405   32.4504 N   0  0  0  0  0  0  0  0  0  0  0  0
    0.3271   -6.2512   31.1274 C   0  0  0  0  0  0  0  0  0  0  0  0
    1.2417   -5.0373   30.9069 C   0  0  0  0  0  0  0  0  0  0  0  0
    0.4152   -3.7697   30.6729 C   0  0  0  0  0  0  0  0  0  0  0  0
   -0.2256   -3.3168   31.9319 N   0  0  0  0  0  0  0  0  0  0  0  0
   -1.5472   -2.2814   31.7899 S   0  0  0  0  0  0  0  0  0  0  0  0
   -1.6025   -1.4692   32.9821 O   0  0  0  0  0  0  0  0  0  0  0  0
   -2.6477   -3.1401   31.4043 O   0  0  0  0  0  0  0  0  0  0  0  0
   -1.2776   -1.1943   30.4535 C   0  0  0  0  0  0  0  0  0  0  0  0
   -1.5440   -1.5489   29.1456 C   0  0  0  0  0  0  0  0  0  0  0  0
   -1.0379   -0.3103   28.0932 S   0  0  0  0  0  0  0  0  0  0  0  0
   -0.5206    0.6117   29.4382 C   0  0  0  0  0  0  0  0  0  0  0  0
   -0.6658    0.0488   30.6173 N   0  0  0  0  0  0  0  0  0  0  0  0
    2.1957   -4.9019   32.1044 C   0  0  0  0  0  0  0  0  0  0  0  0
    1.5046   -4.9374   33.4037 N   0  0  0  0  0  0  0  0  0  0  0  0
    0.7320   -6.1337   33.4404 N   0  0  0  0  0  0  0  0  0  0  0  0
    2.7090   -7.4524   36.2199 H   0  0  0  0  0  0  0  0  0  0  0  0
    2.3092   -7.2908   34.6738 H   0  0  0  0  0  0  0  0  0  0  0  0
    1.9336   -5.0734   35.2796 H   0  0  0  0  0  0  0  0  0  0  0  0
   -0.4839   -6.2623   37.2322 H   0  0  0  0  0  0  0  0  0  0  0  0
    1.4980   -5.9559   38.5147 H   0  0  0  0  0  0  0  0  0  0  0  0
   -0.5514   -7.9948   39.4594 H   0  0  0  0  0  0  0  0  0  0  0  0
   -0.4404   -6.2720   39.8762 H   0  0  0  0  0  0  0  0  0  0  0  0
    1.5715   -6.7078   40.9960 H   0  0  0  0  0  0  0  0  0  0  0  0
    1.6431   -9.3989   40.0309 H   0  0  0  0  0  0  0  0  0  0  0  0
    3.0815   -7.6501   38.3578 H   0  0  0  0  0  0  0  0  0  0  0  0
    1.8929   -8.8922   37.9671 H   0  0  0  0  0  0  0  0  0  0  0  0
   -0.5880   -5.3905   34.9326 H   0  0  0  0  0  0  0  0  0  0  0  0
   -1.9105   -7.3197   34.8247 H   0  0  0  0  0  0  0  0  0  0  0  0
   -0.5378   -8.3981   34.5792 H   0  0  0  0  0  0  0  0  0  0  0  0
   -2.1358   -7.0464   32.5397 H   0  0  0  0  0  0  0  0  0  0  0  0
   -1.3046   -9.1633   32.4922 H   0  0  0  0  0  0  0  0  0  0  0  0
    0.9205   -7.1629   31.0306 H   0  0  0  0  0  0  0  0  0  0  0  0
   -0.4412   -6.2886   30.3484 H   0  0  0  0  0  0  0  0  0  0  0  0
    1.8352   -5.2191   30.0017 H   0  0  0  0  0  0  0  0  0  0  0  0
   -0.3392   -3.9797   29.9082 H   0  0  0  0  0  0  0  0  0  0  0  0
    1.0691   -2.9686   30.3112 H   0  0  0  0  0  0  0  0  0  0  0  0
   -0.5979   -4.1444   32.4259 H   0  0  0  0  0  0  0  0  0  0  0  0
   -1.9893   -2.4573   28.7650 H   0  0  0  0  0  0  0  0  0  0  0  0
   -0.0884    1.5964   29.3136 H   0  0  0  0  0  0  0  0  0  0  0  0
    2.9228   -5.7109   32.0931 H   0  0  0  0  0  0  0  0  0  0  0  0
    2.7702   -3.9714   32.0297 H   0  0  0  0  0  0  0  0  0  0  0  0
    0.9257   -4.0886   33.4601 H   0  0  0  0  0  0  0  0  0  0  0  0
  1  2  1  0
  2  3  1  0
  2  4  1  0
  4  5  1  0
  5  6  1  0
  6  7  1  0
  7  8  1  0
  8  9  1  0
  2 10  1  0
 10 11  1  0
 11 12  1  0
 12 13  1  0
 12 14  1  0
 14 15  1  0
 15 16  1  0
 16 17  1  0
 17 18  1  0
 18 19  1  0
 19 20  2  0
 19 21  2  0
 19 22  1  0
 22 23  2  0
 23 24  1  0
 24 25  1  0
 25 26  2  0
 16 27  1  0
 27 28  1  0
 28 29  1  0
  9  5  1  0
 29 10  1  0
 29 14  1  0
 26 22  1  0
  1 30  1  0
  1 31  1  0
  3 32  1  0
  4 33  1  0
  5 34  1  0
  6 35  1  0
  6 36  1  0
  7 37  1  0
  8 38  1  0
  9 39  1  0
  9 40  1  0
 10 41  1  0
 11 42  1  0
 11 43  1  0
 12 44  1  0
 13 45  1  0
 15 46  1  0
 15 47  1  0
 16 48  1  0
 17 49  1  0
 17 50  1  0
 18 51  1  0
 23 52  1  0
 25 53  1  0
 27 54  1  0
 27 55  1  0
 28 56  1  0
M  END
>  <Energy>  (43) 
-36.982525590358627

>  <compound_id>  (43) 
183

>  <target_id>  (43) 
1

>  <reference_id>  (43) 
197

>  <inspiration_ids>  (43) 
[197, 159]

>  <energy_score>  (43) 
-143.13049333257555

>  <distance_score>  (43) 
1.4869296792258222

>  <path>  (43) 
/opt/xchem-fragalysis-2/maxwin/BulkDock/SCRATCH/505737/C183-P197/C183-P197.minimised.mol

>  <scratch_subdir>  (43) 
/opt/xchem-fragalysis-2/maxwin/BulkDock/SCRATCH/505737/C183-P197

>  <fragmenstein_runtime>  (43) 
3.945671558380127

>  <fragmenstein_outcome>  (43) 
too moved

>  <fragmenstein_mode>  (43) 
expansion

>  <fragmenstein_error>  (43) 


$$$$
C183-P159
     RDKit          3D

 56 59  0  0  0  0  0  0  0  0999 V2000
    1.7195   -7.6532   35.7292 N   0  0  0  0  0  0  0  0  0  0  0  0
    0.7798   -6.5878   35.9663 C   0  0  0  0  0  0  0  0  0  0  0  0
    1.5458   -5.4222   36.1731 O   0  0  0  0  0  0  0  0  0  0  0  0
    0.0150   -6.8217   37.1616 N   0  0  0  0  0  0  0  0  0  0  0  0
    0.8066   -6.9993   38.3993 C   0  0  0  0  0  0  0  0  0  0  0  0
    0.0588   -6.5784   39.6750 C   0  0  0  0  0  0  0  0  0  0  0  0
    0.2714   -7.6356   40.6703 N   0  0  0  0  0  0  0  0  0  0  0  0
    1.3153   -8.4884   40.1534 N   0  0  0  0  0  0  0  0  0  0  0  0
    1.1461   -8.4497   38.7005 C   0  0  0  0  0  0  0  0  0  0  0  0
   -0.1487   -6.3553   34.7170 C   0  0  0  0  0  0  0  0  0  0  0  0
   -1.0396   -7.5000   34.2210 C   0  0  0  0  0  0  0  0  0  0  0  0
   -1.0985   -7.2209   32.7339 C   0  0  0  0  0  0  0  0  0  0  0  0
   -1.4885   -8.2837   31.9060 O   0  0  0  0  0  0  0  0  0  0  0  0
    0.2299   -6.7610   32.4226 N   0  0  0  0  0  0  0  0  0  0  0  0
    0.3743   -6.1548   31.1048 C   0  0  0  0  0  0  0  0  0  0  0  0
    1.2137   -4.8667   31.0054 C   0  0  0  0  0  0  0  0  0  0  0  0
    0.3580   -3.6884   30.5377 C   0  0  0  0  0  0  0  0  0  0  0  0
   -0.9315   -3.6639   31.2432 N   0  0  0  0  0  0  0  0  0  0  0  0
   -1.5882   -2.1765   31.6526 S   0  0  0  0  0  0  0  0  0  0  0  0
   -0.8244   -1.7118   32.7879 O   0  0  0  0  0  0  0  0  0  0  0  0
   -3.0128   -2.4036   31.7203 O   0  0  0  0  0  0  0  0  0  0  0  0
   -1.3295   -1.0421   30.3591 C   0  0  0  0  0  0  0  0  0  0  0  0
   -1.7388   -1.2853   29.0637 C   0  0  0  0  0  0  0  0  0  0  0  0
   -1.2565    0.0084   28.0501 S   0  0  0  0  0  0  0  0  0  0  0  0
   -0.5331    0.7777   29.3965 C   0  0  0  0  0  0  0  0  0  0  0  0
   -0.6138    0.1407   30.5442 N   0  0  0  0  0  0  0  0  0  0  0  0
    1.9161   -4.5140   32.3131 C   0  0  0  0  0  0  0  0  0  0  0  0
    1.0462   -4.7176   33.4502 N   0  0  0  0  0  0  0  0  0  0  0  0
    0.7302   -6.0791   33.5474 N   0  0  0  0  0  0  0  0  0  0  0  0
    2.3939   -7.5819   36.4873 H   0  0  0  0  0  0  0  0  0  0  0  0
    2.2506   -7.3463   34.9173 H   0  0  0  0  0  0  0  0  0  0  0  0
    1.6843   -5.0519   35.2773 H   0  0  0  0  0  0  0  0  0  0  0  0
   -0.5440   -5.9817   37.2969 H   0  0  0  0  0  0  0  0  0  0  0  0
    1.7323   -6.4078   38.3763 H   0  0  0  0  0  0  0  0  0  0  0  0
   -1.0140   -6.4464   39.5116 H   0  0  0  0  0  0  0  0  0  0  0  0
    0.4464   -5.6184   40.0366 H   0  0  0  0  0  0  0  0  0  0  0  0
    0.5319   -7.2253   41.5706 H   0  0  0  0  0  0  0  0  0  0  0  0
    1.1750   -9.4640   40.4522 H   0  0  0  0  0  0  0  0  0  0  0  0
    2.0540   -8.7970   38.2032 H   0  0  0  0  0  0  0  0  0  0  0  0
    0.3117   -9.0886   38.4098 H   0  0  0  0  0  0  0  0  0  0  0  0
   -0.7932   -5.4830   34.9055 H   0  0  0  0  0  0  0  0  0  0  0  0
   -2.0340   -7.4712   34.6758 H   0  0  0  0  0  0  0  0  0  0  0  0
   -0.6190   -8.4739   34.4479 H   0  0  0  0  0  0  0  0  0  0  0  0
   -1.7828   -6.4028   32.5784 H   0  0  0  0  0  0  0  0  0  0  0  0
   -0.9604   -9.0501   32.1819 H   0  0  0  0  0  0  0  0  0  0  0  0
    0.8193   -6.9006   30.4458 H   0  0  0  0  0  0  0  0  0  0  0  0
   -0.6028   -6.0107   30.6326 H   0  0  0  0  0  0  0  0  0  0  0  0
    1.9967   -5.0143   30.2497 H   0  0  0  0  0  0  0  0  0  0  0  0
    0.1420   -3.7989   29.4683 H   0  0  0  0  0  0  0  0  0  0  0  0
    0.9060   -2.7480   30.6583 H   0  0  0  0  0  0  0  0  0  0  0  0
   -0.9745   -4.2555   32.0711 H   0  0  0  0  0  0  0  0  0  0  0  0
   -2.2844   -2.1313   28.6712 H   0  0  0  0  0  0  0  0  0  0  0  0
   -0.0394    1.7365   29.2970 H   0  0  0  0  0  0  0  0  0  0  0  0
    2.8270   -5.0975   32.4547 H   0  0  0  0  0  0  0  0  0  0  0  0
    2.2566   -3.4717   32.3039 H   0  0  0  0  0  0  0  0  0  0  0  0
    0.2740   -4.0483   33.4814 H   0  0  0  0  0  0  0  0  0  0  0  0
  1  2  1  0
  2  3  1  0
  2  4  1  0
  4  5  1  0
  5  6  1  0
  6  7  1  0
  7  8  1  0
  8  9  1  0
  2 10  1  0
 10 11  1  0
 11 12  1  0
 12 13  1  0
 12 14  1  0
 14 15  1  0
 15 16  1  0
 16 17  1  0
 17 18  1  0
 18 19  1  0
 19 20  2  0
 19 21  2  0
 19 22  1  0
 22 23  2  0
 23 24  1  0
 24 25  1  0
 25 26  2  0
 16 27  1  0
 27 28  1  0
 28 29  1  0
  9  5  1  0
 29 10  1  0
 29 14  1  0
 26 22  1  0
  1 30  1  0
  1 31  1  0
  3 32  1  0
  4 33  1  0
  5 34  1  0
  6 35  1  0
  6 36  1  0
  7 37  1  0
  8 38  1  0
  9 39  1  0
  9 40  1  0
 10 41  1  0
 11 42  1  0
 11 43  1  0
 12 44  1  0
 13 45  1  0
 15 46  1  0
 15 47  1  0
 16 48  1  0
 17 49  1  0
 17 50  1  0
 18 51  1  0
 23 52  1  0
 25 53  1  0
 27 54  1  0
 27 55  1  0
 28 56  1  0
M  END
>  <Energy>  (44) 
-18.339675562869925

>  <compound_id>  (44) 
183

>  <target_id>  (44) 
1

>  <reference_id>  (44) 
159

>  <inspiration_ids>  (44) 
[197, 159]

>  <energy_score>  (44) 
-124.48764330508683

>  <distance_score>  (44) 
1.4993069446051293

>  <path>  (44) 
/opt/xchem-fragalysis-2/maxwin/BulkDock/SCRATCH/505737/C183-P159/C183-P159.minimised.mol

>  <scratch_subdir>  (44) 
/opt/xchem-fragalysis-2/maxwin/BulkDock/SCRATCH/505737/C183-P159

>  <fragmenstein_runtime>  (44) 
3.8471508026123047

>  <fragmenstein_outcome>  (44) 
too moved

>  <fragmenstein_mode>  (44) 
expansion

>  <fragmenstein_error>  (44) 


$$$$
C184-P197
     RDKit          3D

 46 49  0  0  0  0  0  0  0  0999 V2000
    1.9092   -3.8918   28.4015 C   0  0  0  0  0  0  0  0  0  0  0  0
    1.0078   -4.1984   29.3463 C   0  0  0  0  0  0  0  0  0  0  0  0
    1.1144   -3.7353   30.7825 C   0  0  0  0  0  0  0  0  0  0  0  0
    1.7521   -4.8203   31.6761 C   0  0  0  0  0  0  0  0  0  0  0  0
    0.8858   -5.9878   31.9941 C   0  0  0  0  0  0  0  0  0  0  0  0
    0.3325   -6.8364   31.1440 N   0  0  0  0  0  0  0  0  0  0  0  0
   -0.5151   -7.5807   31.9045 C   0  0  0  0  0  0  0  0  0  0  0  0
   -1.2302   -8.5944   31.4124 O   0  0  0  0  0  0  0  0  0  0  0  0
   -0.4750   -7.2191   33.2267 C   0  0  0  0  0  0  0  0  0  0  0  0
   -1.1090   -7.5938   34.4233 C   0  0  0  0  0  0  0  0  0  0  0  0
   -0.6680   -7.0686   35.5718 C   0  0  0  0  0  0  0  0  0  0  0  0
    0.4342   -6.0869   35.4973 C   0  0  0  0  0  0  0  0  0  0  0  0
    1.0207   -5.6853   34.4159 N   0  0  0  0  0  0  0  0  0  0  0  0
    0.5202   -6.2723   33.2937 N   0  0  0  0  0  0  0  0  0  0  0  0
   -0.1798   -3.0027   31.3235 C   0  0  0  0  0  0  0  0  0  0  0  0
   -1.2657   -3.9193   31.9324 C   0  0  0  0  0  0  0  0  0  0  0  0
   -2.5590   -3.2831   31.9389 O   0  0  0  0  0  0  0  0  0  0  0  0
    0.2204   -1.9781   32.3033 N   0  0  0  0  0  0  0  0  0  0  0  0
    0.4140   -0.7482   31.5146 N   0  0  0  0  0  0  0  0  0  0  0  0
   -0.2091   -0.9730   30.2126 C   0  0  0  0  0  0  0  0  0  0  0  0
    0.7144   -0.9190   28.9863 C   0  0  0  0  0  0  0  0  0  0  0  0
    0.9442    0.8266   28.6946 S   0  0  0  0  0  0  0  0  0  0  0  0
   -0.5617    1.2435   29.5725 C   0  0  0  0  0  0  0  0  0  0  0  0
   -1.2134    0.0317   30.0450 N   0  0  0  0  0  0  0  0  0  0  0  0
   -0.9171   -2.2025   30.3461 N   0  0  0  0  0  0  0  0  0  0  0  0
    1.7751   -4.2350   27.3794 H   0  0  0  0  0  0  0  0  0  0  0  0
    2.8011   -3.3090   28.6086 H   0  0  0  0  0  0  0  0  0  0  0  0
    0.1419   -4.8049   29.0916 H   0  0  0  0  0  0  0  0  0  0  0  0
    1.8987   -2.9615   30.7569 H   0  0  0  0  0  0  0  0  0  0  0  0
    2.1025   -4.3355   32.5953 H   0  0  0  0  0  0  0  0  0  0  0  0
    2.6586   -5.2022   31.1892 H   0  0  0  0  0  0  0  0  0  0  0  0
   -0.7550   -8.8679   30.6061 H   0  0  0  0  0  0  0  0  0  0  0  0
   -1.9220   -8.3095   34.3988 H   0  0  0  0  0  0  0  0  0  0  0  0
   -1.0601   -7.3124   36.5429 H   0  0  0  0  0  0  0  0  0  0  0  0
    0.7612   -5.6750   36.4669 H   0  0  0  0  0  0  0  0  0  0  0  0
   -1.0486   -4.1854   32.9683 H   0  0  0  0  0  0  0  0  0  0  0  0
   -1.3823   -4.8165   31.3293 H   0  0  0  0  0  0  0  0  0  0  0  0
   -2.4593   -2.5573   31.2780 H   0  0  0  0  0  0  0  0  0  0  0  0
   -0.5901   -1.8344   32.9183 H   0  0  0  0  0  0  0  0  0  0  0  0
    1.4079   -0.5601   31.3661 H   0  0  0  0  0  0  0  0  0  0  0  0
    1.6948   -1.3572   29.1660 H   0  0  0  0  0  0  0  0  0  0  0  0
    0.2631   -1.3673   28.0947 H   0  0  0  0  0  0  0  0  0  0  0  0
   -1.2332    1.8087   28.9220 H   0  0  0  0  0  0  0  0  0  0  0  0
   -0.2629    1.8730   30.4155 H   0  0  0  0  0  0  0  0  0  0  0  0
   -1.6193    0.1852   30.9595 H   0  0  0  0  0  0  0  0  0  0  0  0
   -0.9993   -2.6662   29.4435 H   0  0  0  0  0  0  0  0  0  0  0  0
  1  2  2  0
  2  3  1  0
  3  4  1  0
  4  5  1  0
  5  6  2  0
  6  7  1  0
  7  8  1  0
  7  9  2  0
  9 10  1  0
 10 11  2  0
 11 12  1  0
 12 13  2  0
 13 14  1  0
  3 15  1  0
 15 16  1  0
 16 17  1  0
 15 18  1  0
 18 19  1  0
 19 20  1  0
 20 21  1  0
 21 22  1  0
 22 23  1  0
 23 24  1  0
 20 25  1  0
 14  5  1  0
 25 15  1  0
 14  9  1  0
 24 20  1  0
  1 26  1  0
  1 27  1  0
  2 28  1  0
  3 29  1  0
  4 30  1  0
  4 31  1  0
  8 32  1  0
 10 33  1  0
 11 34  1  0
 12 35  1  0
 16 36  1  0
 16 37  1  0
 17 38  1  0
 18 39  1  0
 19 40  1  0
 21 41  1  0
 21 42  1  0
 23 43  1  0
 23 44  1  0
 24 45  1  0
 25 46  1  0
M  END
>  <Energy>  (45) 
-24.945901663141662

>  <compound_id>  (45) 
184

>  <target_id>  (45) 
1

>  <reference_id>  (45) 
197

>  <inspiration_ids>  (45) 
[197, 162]

>  <energy_score>  (45) 
-65.72182849319483

>  <distance_score>  (45) 
1.6680408680503058

>  <path>  (45) 
/opt/xchem-fragalysis-2/maxwin/BulkDock/SCRATCH/505737/C184-P197/C184-P197.minimised.mol

>  <scratch_subdir>  (45) 
/opt/xchem-fragalysis-2/maxwin/BulkDock/SCRATCH/505737/C184-P197

>  <fragmenstein_runtime>  (45) 
2.5586342811584473

>  <fragmenstein_outcome>  (45) 
too moved

>  <fragmenstein_mode>  (45) 
expansion

>  <fragmenstein_error>  (45) 


$$$$
C184-P162
     RDKit          3D

 46 49  0  0  0  0  0  0  0  0999 V2000
    2.2685   -3.3871   28.7951 C   0  0  0  0  0  0  0  0  0  0  0  0
    1.3228   -3.9460   29.5654 C   0  0  0  0  0  0  0  0  0  0  0  0
    1.2145   -3.6774   31.0601 C   0  0  0  0  0  0  0  0  0  0  0  0
    1.6938   -4.8915   31.8722 C   0  0  0  0  0  0  0  0  0  0  0  0
    0.7298   -6.0073   32.0321 C   0  0  0  0  0  0  0  0  0  0  0  0
    0.1568   -6.7192   31.0786 N   0  0  0  0  0  0  0  0  0  0  0  0
   -0.6870   -7.5544   31.7406 C   0  0  0  0  0  0  0  0  0  0  0  0
   -1.3658   -8.5273   31.1312 O   0  0  0  0  0  0  0  0  0  0  0  0
   -0.6540   -7.3615   33.0963 C   0  0  0  0  0  0  0  0  0  0  0  0
   -1.2716   -7.9113   34.2305 C   0  0  0  0  0  0  0  0  0  0  0  0
   -0.8103   -7.5796   35.4412 C   0  0  0  0  0  0  0  0  0  0  0  0
    0.2873   -6.5914   35.4993 C   0  0  0  0  0  0  0  0  0  0  0  0
    0.8591   -6.0284   34.4813 N   0  0  0  0  0  0  0  0  0  0  0  0
    0.3451   -6.4413   33.2873 N   0  0  0  0  0  0  0  0  0  0  0  0
   -0.0781   -2.8855   31.5547 C   0  0  0  0  0  0  0  0  0  0  0  0
   -0.7973   -3.4734   32.7996 C   0  0  0  0  0  0  0  0  0  0  0  0
   -1.8204   -2.6102   33.3269 O   0  0  0  0  0  0  0  0  0  0  0  0
    0.3736   -1.5245   31.9107 N   0  0  0  0  0  0  0  0  0  0  0  0
    0.3342   -0.8071   30.6386 N   0  0  0  0  0  0  0  0  0  0  0  0
   -0.8023   -1.3697   29.9101 C   0  0  0  0  0  0  0  0  0  0  0  0
   -0.6821   -1.4398   28.3741 C   0  0  0  0  0  0  0  0  0  0  0  0
   -0.9108    0.2580   27.8239 S   0  0  0  0  0  0  0  0  0  0  0  0
   -1.6896    0.7039   29.3704 C   0  0  0  0  0  0  0  0  0  0  0  0
   -1.9116   -0.4908   30.1779 N   0  0  0  0  0  0  0  0  0  0  0  0
   -1.1015   -2.6305   30.5413 N   0  0  0  0  0  0  0  0  0  0  0  0
    3.0042   -2.6933   29.1921 H   0  0  0  0  0  0  0  0  0  0  0  0
    2.3337   -3.6140   27.7382 H   0  0  0  0  0  0  0  0  0  0  0  0
    0.6126   -4.6451   29.1306 H   0  0  0  0  0  0  0  0  0  0  0  0
    2.0497   -2.9785   31.2449 H   0  0  0  0  0  0  0  0  0  0  0  0
    2.0274   -4.5265   32.8518 H   0  0  0  0  0  0  0  0  0  0  0  0
    2.5969   -5.2966   31.4050 H   0  0  0  0  0  0  0  0  0  0  0  0
   -0.8615   -8.6976   30.3133 H   0  0  0  0  0  0  0  0  0  0  0  0
   -2.0634   -8.6409   34.1084 H   0  0  0  0  0  0  0  0  0  0  0  0
   -1.1679   -8.0250   36.3566 H   0  0  0  0  0  0  0  0  0  0  0  0
    0.6289   -6.3309   36.5153 H   0  0  0  0  0  0  0  0  0  0  0  0
   -0.0908   -3.6300   33.6186 H   0  0  0  0  0  0  0  0  0  0  0  0
   -1.2846   -4.4117   32.5381 H   0  0  0  0  0  0  0  0  0  0  0  0
   -2.3647   -3.1817   33.9095 H   0  0  0  0  0  0  0  0  0  0  0  0
   -0.3660   -1.1631   32.5296 H   0  0  0  0  0  0  0  0  0  0  0  0
    1.1728   -0.9927   30.0863 H   0  0  0  0  0  0  0  0  0  0  0  0
    0.2821   -1.8086   28.0314 H   0  0  0  0  0  0  0  0  0  0  0  0
   -1.4787   -2.0518   27.9411 H   0  0  0  0  0  0  0  0  0  0  0  0
   -2.6351    1.1949   29.1518 H   0  0  0  0  0  0  0  0  0  0  0  0
   -1.0262    1.4016   29.8892 H   0  0  0  0  0  0  0  0  0  0  0  0
   -1.8453   -0.2637   31.1613 H   0  0  0  0  0  0  0  0  0  0  0  0
   -1.1278   -3.3606   29.8394 H   0  0  0  0  0  0  0  0  0  0  0  0
  1  2  2  0
  2  3  1  0
  3  4  1  0
  4  5  1  0
  5  6  2  0
  6  7  1  0
  7  8  1  0
  7  9  2  0
  9 10  1  0
 10 11  2  0
 11 12  1  0
 12 13  2  0
 13 14  1  0
  3 15  1  0
 15 16  1  0
 16 17  1  0
 15 18  1  0
 18 19  1  0
 19 20  1  0
 20 21  1  0
 21 22  1  0
 22 23  1  0
 23 24  1  0
 20 25  1  0
 14  5  1  0
 25 15  1  0
 14  9  1  0
 24 20  1  0
  1 26  1  0
  1 27  1  0
  2 28  1  0
  3 29  1  0
  4 30  1  0
  4 31  1  0
  8 32  1  0
 10 33  1  0
 11 34  1  0
 12 35  1  0
 16 36  1  0
 16 37  1  0
 17 38  1  0
 18 39  1  0
 19 40  1  0
 21 41  1  0
 21 42  1  0
 23 43  1  0
 23 44  1  0
 24 45  1  0
 25 46  1  0
M  END
>  <Energy>  (46) 
-13.049238066414928

>  <compound_id>  (46) 
184

>  <target_id>  (46) 
1

>  <reference_id>  (46) 
162

>  <inspiration_ids>  (46) 
[197, 162]

>  <energy_score>  (46) 
-53.825164896467996

>  <distance_score>  (46) 
1.4136566639812045

>  <path>  (46) 
/opt/xchem-fragalysis-2/maxwin/BulkDock/SCRATCH/505737/C184-P162/C184-P162.minimised.mol

>  <scratch_subdir>  (46) 
/opt/xchem-fragalysis-2/maxwin/BulkDock/SCRATCH/505737/C184-P162

>  <fragmenstein_runtime>  (46) 
2.6579337120056152

>  <fragmenstein_outcome>  (46) 
too moved

>  <fragmenstein_mode>  (46) 
expansion

>  <fragmenstein_error>  (46) 


$$$$
C186-P197
     RDKit          3D

 45 48  0  0  0  0  0  0  0  0999 V2000
   -1.3015   -1.3827   32.7454 O   0  0  0  0  0  0  0  0  0  0  0  0
   -1.0094   -2.2808   31.6515 S   0  0  0  0  0  0  0  0  0  0  0  0
   -1.7610   -3.4920   31.4128 O   0  0  0  0  0  0  0  0  0  0  0  0
    0.6602   -2.5834   31.6885 N   0  0  0  0  0  0  0  0  0  0  0  0
    1.2063   -3.5670   30.7224 C   0  0  0  0  0  0  0  0  0  0  0  0
    1.1737   -4.8569   31.5033 C   0  0  0  0  0  0  0  0  0  0  0  0
    1.9780   -4.8860   32.7599 C   0  0  0  0  0  0  0  0  0  0  0  0
    1.4800   -5.6618   33.7253 C   0  0  0  0  0  0  0  0  0  0  0  0
    0.3815   -6.4646   33.4644 N   0  0  0  0  0  0  0  0  0  0  0  0
   -0.4499   -7.2048   34.2881 C   0  0  0  0  0  0  0  0  0  0  0  0
   -0.5371   -7.1587   35.7932 C   0  0  0  0  0  0  0  0  0  0  0  0
    0.6139   -6.5432   36.5907 C   0  0  0  0  0  0  0  0  0  0  0  0
    0.4201   -6.6746   38.0796 C   0  0  0  0  0  0  0  0  0  0  0  0
   -0.1774   -5.6547   38.8230 C   0  0  0  0  0  0  0  0  0  0  0  0
   -0.3694   -5.8506   40.1823 C   0  0  0  0  0  0  0  0  0  0  0  0
   -0.0189   -6.9781   40.8368 N   0  0  0  0  0  0  0  0  0  0  0  0
    0.5551   -7.9533   40.1010 C   0  0  0  0  0  0  0  0  0  0  0  0
    0.8023   -7.8417   38.7427 C   0  0  0  0  0  0  0  0  0  0  0  0
   -1.2904   -7.9307   33.4376 C   0  0  0  0  0  0  0  0  0  0  0  0
   -0.9777   -7.6018   32.1225 C   0  0  0  0  0  0  0  0  0  0  0  0
   -1.5185   -8.0167   30.9725 O   0  0  0  0  0  0  0  0  0  0  0  0
   -0.0504   -6.6089   32.1481 C   0  0  0  0  0  0  0  0  0  0  0  0
    0.3484   -5.7873   31.1339 N   0  0  0  0  0  0  0  0  0  0  0  0
   -1.1955   -1.3092   30.2142 C   0  0  0  0  0  0  0  0  0  0  0  0
   -1.4811   -1.8543   28.9816 C   0  0  0  0  0  0  0  0  0  0  0  0
   -1.3400   -0.6582   27.7786 S   0  0  0  0  0  0  0  0  0  0  0  0
   -0.9308    0.4928   28.9789 C   0  0  0  0  0  0  0  0  0  0  0  0
   -0.8231    0.0357   30.2064 N   0  0  0  0  0  0  0  0  0  0  0  0
    1.1444   -1.6828   31.6951 H   0  0  0  0  0  0  0  0  0  0  0  0
    0.6264   -3.6330   29.8005 H   0  0  0  0  0  0  0  0  0  0  0  0
    2.2390   -3.3047   30.4753 H   0  0  0  0  0  0  0  0  0  0  0  0
    2.8113   -4.2112   32.8938 H   0  0  0  0  0  0  0  0  0  0  0  0
    1.9367   -5.6656   34.6983 H   0  0  0  0  0  0  0  0  0  0  0  0
   -1.4522   -6.6060   36.0361 H   0  0  0  0  0  0  0  0  0  0  0  0
   -0.6970   -8.1875   36.1371 H   0  0  0  0  0  0  0  0  0  0  0  0
    0.7043   -5.4752   36.3629 H   0  0  0  0  0  0  0  0  0  0  0  0
    1.5635   -7.0241   36.3260 H   0  0  0  0  0  0  0  0  0  0  0  0
   -0.5070   -4.7301   38.3608 H   0  0  0  0  0  0  0  0  0  0  0  0
   -0.8407   -5.0875   40.7953 H   0  0  0  0  0  0  0  0  0  0  0  0
    0.8126   -8.8615   40.6407 H   0  0  0  0  0  0  0  0  0  0  0  0
    1.2653   -8.6691   38.2191 H   0  0  0  0  0  0  0  0  0  0  0  0
   -2.0823   -8.5876   33.7593 H   0  0  0  0  0  0  0  0  0  0  0  0
   -1.1115   -7.4779   30.2638 H   0  0  0  0  0  0  0  0  0  0  0  0
   -1.7276   -2.8773   28.7390 H   0  0  0  0  0  0  0  0  0  0  0  0
   -0.7513    1.5295   28.7277 H   0  0  0  0  0  0  0  0  0  0  0  0
  1  2  2  0
  2  3  2  0
  2  4  1  0
  4  5  1  0
  5  6  1  0
  6  7  1  0
  7  8  2  0
  8  9  1  0
  9 10  1  0
 10 11  1  0
 11 12  1  0
 12 13  1  0
 13 14  2  0
 14 15  1  0
 15 16  2  0
 16 17  1  0
 17 18  2  0
 10 19  2  0
 19 20  1  0
 20 21  1  0
 20 22  2  0
 22 23  1  0
  2 24  1  0
 24 25  2  0
 25 26  1  0
 26 27  1  0
 27 28  2  0
 23  6  2  0
 28 24  1  0
 22  9  1  0
 18 13  1  0
  4 29  1  0
  5 30  1  0
  5 31  1  0
  7 32  1  0
  8 33  1  0
 11 34  1  0
 11 35  1  0
 12 36  1  0
 12 37  1  0
 14 38  1  0
 15 39  1  0
 17 40  1  0
 18 41  1  0
 19 42  1  0
 21 43  1  0
 25 44  1  0
 27 45  1  0
M  END
>  <Energy>  (47) 
89.825305287505046

>  <compound_id>  (47) 
186

>  <target_id>  (47) 
1

>  <reference_id>  (47) 
197

>  <inspiration_ids>  (47) 
[197, 164]

>  <energy_score>  (47) 
-68.05872656054557

>  <distance_score>  (47) 
1.219953696722388

>  <path>  (47) 
/opt/xchem-fragalysis-2/maxwin/BulkDock/SCRATCH/505737/C186-P197/C186-P197.minimised.mol

>  <scratch_subdir>  (47) 
/opt/xchem-fragalysis-2/maxwin/BulkDock/SCRATCH/505737/C186-P197

>  <fragmenstein_runtime>  (47) 
3.121706247329712

>  <fragmenstein_outcome>  (47) 
too moved

>  <fragmenstein_mode>  (47) 
expansion

>  <fragmenstein_error>  (47) 


$$$$
C186-P164
     RDKit          3D

 45 48  0  0  0  0  0  0  0  0999 V2000
   -1.2602   -1.3541   32.7430 O   0  0  0  0  0  0  0  0  0  0  0  0
   -0.9514   -2.1525   31.5785 S   0  0  0  0  0  0  0  0  0  0  0  0
   -1.7465   -3.2929   31.1870 O   0  0  0  0  0  0  0  0  0  0  0  0
    0.6884   -2.5654   31.6777 N   0  0  0  0  0  0  0  0  0  0  0  0
    1.2063   -3.5584   30.7098 C   0  0  0  0  0  0  0  0  0  0  0  0
    1.1467   -4.8428   31.5043 C   0  0  0  0  0  0  0  0  0  0  0  0
    1.9454   -4.8781   32.7658 C   0  0  0  0  0  0  0  0  0  0  0  0
    1.4389   -5.6484   33.7320 C   0  0  0  0  0  0  0  0  0  0  0  0
    0.3359   -6.4453   33.4703 N   0  0  0  0  0  0  0  0  0  0  0  0
   -0.5014   -7.1846   34.2913 C   0  0  0  0  0  0  0  0  0  0  0  0
   -0.5886   -7.1495   35.7975 C   0  0  0  0  0  0  0  0  0  0  0  0
    0.5673   -6.5438   36.5956 C   0  0  0  0  0  0  0  0  0  0  0  0
    0.3800   -6.6884   38.0840 C   0  0  0  0  0  0  0  0  0  0  0  0
   -0.1947   -5.6660   38.8416 C   0  0  0  0  0  0  0  0  0  0  0  0
   -0.3801   -5.8720   40.2003 C   0  0  0  0  0  0  0  0  0  0  0  0
   -0.0429   -7.0111   40.8415 N   0  0  0  0  0  0  0  0  0  0  0  0
    0.5074   -7.9893   40.0918 C   0  0  0  0  0  0  0  0  0  0  0  0
    0.7456   -7.8692   38.7326 C   0  0  0  0  0  0  0  0  0  0  0  0
   -1.3475   -7.9010   33.4381 C   0  0  0  0  0  0  0  0  0  0  0  0
   -1.0264   -7.5725   32.1255 C   0  0  0  0  0  0  0  0  0  0  0  0
   -1.5635   -7.9844   30.9741 O   0  0  0  0  0  0  0  0  0  0  0  0
   -0.0947   -6.5842   32.1530 C   0  0  0  0  0  0  0  0  0  0  0  0
    0.3101   -5.7649   31.1385 N   0  0  0  0  0  0  0  0  0  0  0  0
   -0.9891   -1.0203   30.2464 C   0  0  0  0  0  0  0  0  0  0  0  0
   -1.3165   -1.3554   28.9499 C   0  0  0  0  0  0  0  0  0  0  0  0
   -1.0595   -0.0037   27.9279 S   0  0  0  0  0  0  0  0  0  0  0  0
   -0.5117    0.9023   29.2678 C   0  0  0  0  0  0  0  0  0  0  0  0
   -0.4631    0.2644   30.4152 N   0  0  0  0  0  0  0  0  0  0  0  0
    1.2323   -1.7015   31.7405 H   0  0  0  0  0  0  0  0  0  0  0  0
    0.6143   -3.6150   29.7937 H   0  0  0  0  0  0  0  0  0  0  0  0
    2.2428   -3.3219   30.4539 H   0  0  0  0  0  0  0  0  0  0  0  0
    2.7828   -4.2089   32.9025 H   0  0  0  0  0  0  0  0  0  0  0  0
    1.8918   -5.6523   34.7068 H   0  0  0  0  0  0  0  0  0  0  0  0
   -1.5042   -6.6004   36.0489 H   0  0  0  0  0  0  0  0  0  0  0  0
   -0.7490   -8.1810   36.1337 H   0  0  0  0  0  0  0  0  0  0  0  0
    0.6594   -5.4742   36.3757 H   0  0  0  0  0  0  0  0  0  0  0  0
    1.5146   -7.0249   36.3231 H   0  0  0  0  0  0  0  0  0  0  0  0
   -0.5123   -4.7316   38.3910 H   0  0  0  0  0  0  0  0  0  0  0  0
   -0.8346   -5.1073   40.8239 H   0  0  0  0  0  0  0  0  0  0  0  0
    0.7517   -8.9076   40.6208 H   0  0  0  0  0  0  0  0  0  0  0  0
    1.1875   -8.7007   38.1975 H   0  0  0  0  0  0  0  0  0  0  0  0
   -2.1456   -8.5533   33.7555 H   0  0  0  0  0  0  0  0  0  0  0  0
   -1.1353   -7.4652   30.2635 H   0  0  0  0  0  0  0  0  0  0  0  0
   -1.6805   -2.2949   28.5582 H   0  0  0  0  0  0  0  0  0  0  0  0
   -0.2087    1.9371   29.1627 H   0  0  0  0  0  0  0  0  0  0  0  0
  1  2  2  0
  2  3  2  0
  2  4  1  0
  4  5  1  0
  5  6  1  0
  6  7  1  0
  7  8  2  0
  8  9  1  0
  9 10  1  0
 10 11  1  0
 11 12  1  0
 12 13  1  0
 13 14  2  0
 14 15  1  0
 15 16  2  0
 16 17  1  0
 17 18  2  0
 10 19  2  0
 19 20  1  0
 20 21  1  0
 20 22  2  0
 22 23  1  0
  2 24  1  0
 24 25  2  0
 25 26  1  0
 26 27  1  0
 27 28  2  0
 23  6  2  0
 28 24  1  0
 22  9  1  0
 18 13  1  0
  4 29  1  0
  5 30  1  0
  5 31  1  0
  7 32  1  0
  8 33  1  0
 11 34  1  0
 11 35  1  0
 12 36  1  0
 12 37  1  0
 14 38  1  0
 15 39  1  0
 17 40  1  0
 18 41  1  0
 19 42  1  0
 21 43  1  0
 25 44  1  0
 27 45  1  0
M  END
>  <Energy>  (48) 
89.142576610381113

>  <compound_id>  (48) 
186

>  <target_id>  (48) 
1

>  <reference_id>  (48) 
164

>  <inspiration_ids>  (48) 
[197, 164]

>  <energy_score>  (48) 
-68.74145523767116

>  <distance_score>  (48) 
1.22779114951844

>  <path>  (48) 
/opt/xchem-fragalysis-2/maxwin/BulkDock/SCRATCH/505737/C186-P164/C186-P164.minimised.mol

>  <scratch_subdir>  (48) 
/opt/xchem-fragalysis-2/maxwin/BulkDock/SCRATCH/505737/C186-P164

>  <fragmenstein_runtime>  (48) 
3.053623914718628

>  <fragmenstein_outcome>  (48) 
too moved

>  <fragmenstein_mode>  (48) 
expansion

>  <fragmenstein_error>  (48) 


$$$$
C187-P197
     RDKit          3D

 45 48  0  0  0  0  0  0  0  0999 V2000
   -1.4202   -1.5092   32.9320 O   0  0  0  0  0  0  0  0  0  0  0  0
   -1.2186   -2.3677   31.7881 S   0  0  0  0  0  0  0  0  0  0  0  0
   -2.1315   -3.4528   31.4795 O   0  0  0  0  0  0  0  0  0  0  0  0
    0.3291   -3.0426   31.9175 N   0  0  0  0  0  0  0  0  0  0  0  0
    0.8111   -3.8086   30.7416 C   0  0  0  0  0  0  0  0  0  0  0  0
    1.6790   -4.9692   31.1939 C   0  0  0  0  0  0  0  0  0  0  0  0
    0.7871   -5.8987   31.9602 C   0  0  0  0  0  0  0  0  0  0  0  0
    0.5721   -5.6737   33.2229 N   0  0  0  0  0  0  0  0  0  0  0  0
   -0.2812   -6.5016   33.9295 C   0  0  0  0  0  0  0  0  0  0  0  0
   -0.3445   -6.2656   35.4277 C   0  0  0  0  0  0  0  0  0  0  0  0
    0.3998   -5.0140   35.9611 C   0  0  0  0  0  0  0  0  0  0  0  0
    1.8910   -4.9632   35.6919 C   0  0  0  0  0  0  0  0  0  0  0  0
    2.4596   -3.8352   35.0870 C   0  0  0  0  0  0  0  0  0  0  0  0
    3.8109   -3.8506   34.7746 C   0  0  0  0  0  0  0  0  0  0  0  0
    4.6287   -4.8932   35.0308 N   0  0  0  0  0  0  0  0  0  0  0  0
    4.0751   -5.9480   35.6658 C   0  0  0  0  0  0  0  0  0  0  0  0
    2.7336   -6.0301   36.0130 C   0  0  0  0  0  0  0  0  0  0  0  0
   -0.9820   -7.4860   33.3266 C   0  0  0  0  0  0  0  0  0  0  0  0
   -0.7827   -7.7181   31.9744 N   0  0  0  0  0  0  0  0  0  0  0  0
   -1.2541   -8.6655   31.1331 N   0  0  0  0  0  0  0  0  0  0  0  0
   -0.4706   -8.4898   30.0597 C   0  0  0  0  0  0  0  0  0  0  0  0
    0.3174   -7.3895   30.0661 N   0  0  0  0  0  0  0  0  0  0  0  0
    0.1231   -6.9559   31.2837 C   0  0  0  0  0  0  0  0  0  0  0  0
   -1.2096   -1.3295   30.3836 C   0  0  0  0  0  0  0  0  0  0  0  0
   -1.4314   -1.8106   29.1085 C   0  0  0  0  0  0  0  0  0  0  0  0
   -1.1892   -0.5682   27.9665 S   0  0  0  0  0  0  0  0  0  0  0  0
   -0.8317    0.5184   29.2406 C   0  0  0  0  0  0  0  0  0  0  0  0
   -0.8490    0.0166   30.4560 N   0  0  0  0  0  0  0  0  0  0  0  0
    0.3681   -3.5615   32.8044 H   0  0  0  0  0  0  0  0  0  0  0  0
   -0.0252   -4.1910   30.1472 H   0  0  0  0  0  0  0  0  0  0  0  0
    1.3940   -3.1313   30.1087 H   0  0  0  0  0  0  0  0  0  0  0  0
    2.1220   -5.4771   30.3321 H   0  0  0  0  0  0  0  0  0  0  0  0
    2.4921   -4.6264   31.8430 H   0  0  0  0  0  0  0  0  0  0  0  0
    0.0445   -7.1586   35.9333 H   0  0  0  0  0  0  0  0  0  0  0  0
   -1.3976   -6.1733   35.7202 H   0  0  0  0  0  0  0  0  0  0  0  0
   -0.0823   -4.1205   35.5426 H   0  0  0  0  0  0  0  0  0  0  0  0
    0.2556   -4.9568   37.0475 H   0  0  0  0  0  0  0  0  0  0  0  0
    1.8606   -2.9644   34.8395 H   0  0  0  0  0  0  0  0  0  0  0  0
    4.2813   -2.9980   34.2932 H   0  0  0  0  0  0  0  0  0  0  0  0
    4.7619   -6.7566   35.9000 H   0  0  0  0  0  0  0  0  0  0  0  0
    2.3625   -6.9133   36.5213 H   0  0  0  0  0  0  0  0  0  0  0  0
   -1.6539   -8.1587   33.8403 H   0  0  0  0  0  0  0  0  0  0  0  0
   -0.4793   -9.1891   29.2329 H   0  0  0  0  0  0  0  0  0  0  0  0
   -1.6993   -2.8098   28.7976 H   0  0  0  0  0  0  0  0  0  0  0  0
   -0.5965    1.5560   29.0426 H   0  0  0  0  0  0  0  0  0  0  0  0
  1  2  2  0
  2  3  2  0
  2  4  1  0
  4  5  1  0
  5  6  1  0
  6  7  1  0
  7  8  2  0
  8  9  1  0
  9 10  1  0
 10 11  1  0
 11 12  1  0
 12 13  2  0
 13 14  1  0
 14 15  2  0
 15 16  1  0
 16 17  2  0
  9 18  2  0
 18 19  1  0
 19 20  1  0
 20 21  2  0
 21 22  1  0
 22 23  2  0
  2 24  1  0
 24 25  2  0
 25 26  1  0
 26 27  1  0
 27 28  2  0
 23  7  1  0
 28 24  1  0
 17 12  1  0
 23 19  1  0
  4 29  1  0
  5 30  1  0
  5 31  1  0
  6 32  1  0
  6 33  1  0
 10 34  1  0
 10 35  1  0
 11 36  1  0
 11 37  1  0
 13 38  1  0
 14 39  1  0
 16 40  1  0
 17 41  1  0
 18 42  1  0
 21 43  1  0
 25 44  1  0
 27 45  1  0
M  END
>  <Energy>  (49) 
40.733149850820084

>  <compound_id>  (49) 
187

>  <target_id>  (49) 
1

>  <reference_id>  (49) 
197

>  <inspiration_ids>  (49) 
[197, 165]

>  <energy_score>  (49) 
-66.76318022377923

>  <distance_score>  (49) 
0.5792516024178683

>  <path>  (49) 
/opt/xchem-fragalysis-2/maxwin/BulkDock/SCRATCH/505737/C187-P197/C187-P197.minimised.mol

>  <scratch_subdir>  (49) 
/opt/xchem-fragalysis-2/maxwin/BulkDock/SCRATCH/505737/C187-P197

>  <fragmenstein_runtime>  (49) 
2.3979454040527344

>  <fragmenstein_outcome>  (49) 
acceptable

>  <fragmenstein_mode>  (49) 
expansion

>  <fragmenstein_error>  (49) 


$$$$
C187-P165
     RDKit          3D

 45 48  0  0  0  0  0  0  0  0999 V2000
   -1.3273   -1.4056   32.9453 O   0  0  0  0  0  0  0  0  0  0  0  0
   -1.1527   -2.2261   31.7692 S   0  0  0  0  0  0  0  0  0  0  0  0
   -2.1392   -3.2193   31.3913 O   0  0  0  0  0  0  0  0  0  0  0  0
    0.3287   -3.0285   31.9200 N   0  0  0  0  0  0  0  0  0  0  0  0
    0.7759   -3.8043   30.7392 C   0  0  0  0  0  0  0  0  0  0  0  0
    1.6470   -4.9667   31.1868 C   0  0  0  0  0  0  0  0  0  0  0  0
    0.7634   -5.8929   31.9682 C   0  0  0  0  0  0  0  0  0  0  0  0
    0.5421   -5.6505   33.2267 N   0  0  0  0  0  0  0  0  0  0  0  0
   -0.3039   -6.4806   33.9421 C   0  0  0  0  0  0  0  0  0  0  0  0
   -0.3630   -6.2433   35.4397 C   0  0  0  0  0  0  0  0  0  0  0  0
    0.3950   -4.9984   35.9679 C   0  0  0  0  0  0  0  0  0  0  0  0
    1.8853   -4.9586   35.6903 C   0  0  0  0  0  0  0  0  0  0  0  0
    2.4607   -3.8303   35.0925 C   0  0  0  0  0  0  0  0  0  0  0  0
    3.8109   -3.8538   34.7756 C   0  0  0  0  0  0  0  0  0  0  0  0
    4.6221   -4.9048   35.0205 N   0  0  0  0  0  0  0  0  0  0  0  0
    4.0602   -5.9624   35.6438 C   0  0  0  0  0  0  0  0  0  0  0  0
    2.7194   -6.0367   35.9951 C   0  0  0  0  0  0  0  0  0  0  0  0
   -1.0037   -7.4711   33.3486 C   0  0  0  0  0  0  0  0  0  0  0  0
   -0.8035   -7.7150   32.0000 N   0  0  0  0  0  0  0  0  0  0  0  0
   -1.2919   -8.6516   31.1586 N   0  0  0  0  0  0  0  0  0  0  0  0
   -0.4984   -8.4970   30.0901 C   0  0  0  0  0  0  0  0  0  0  0  0
    0.3036   -7.4056   30.0893 N   0  0  0  0  0  0  0  0  0  0  0  0
    0.1080   -6.9627   31.3040 C   0  0  0  0  0  0  0  0  0  0  0  0
   -1.0097   -1.1234   30.4203 C   0  0  0  0  0  0  0  0  0  0  0  0
   -1.3161   -1.4689   29.1187 C   0  0  0  0  0  0  0  0  0  0  0  0
   -0.9388   -0.1705   28.0671 S   0  0  0  0  0  0  0  0  0  0  0  0
   -0.3715    0.7316   29.4029 C   0  0  0  0  0  0  0  0  0  0  0  0
   -0.4436    0.1435   30.5764 N   0  0  0  0  0  0  0  0  0  0  0  0
    0.3066   -3.5659   32.7969 H   0  0  0  0  0  0  0  0  0  0  0  0
   -0.0793   -4.1825   30.1688 H   0  0  0  0  0  0  0  0  0  0  0  0
    1.3518   -3.1387   30.0879 H   0  0  0  0  0  0  0  0  0  0  0  0
    2.0795   -5.4794   30.3222 H   0  0  0  0  0  0  0  0  0  0  0  0
    2.4682   -4.6232   31.8252 H   0  0  0  0  0  0  0  0  0  0  0  0
    0.0187   -7.1390   35.9460 H   0  0  0  0  0  0  0  0  0  0  0  0
   -1.4149   -6.1410   35.7349 H   0  0  0  0  0  0  0  0  0  0  0  0
   -0.0822   -4.1010   35.5523 H   0  0  0  0  0  0  0  0  0  0  0  0
    0.2578   -4.9399   37.0553 H   0  0  0  0  0  0  0  0  0  0  0  0
    1.8668   -2.9537   34.8523 H   0  0  0  0  0  0  0  0  0  0  0  0
    4.2855   -3.0007   34.2992 H   0  0  0  0  0  0  0  0  0  0  0  0
    4.7394   -6.7809   35.8641 H   0  0  0  0  0  0  0  0  0  0  0  0
    2.3398   -6.9240   36.4900 H   0  0  0  0  0  0  0  0  0  0  0  0
   -1.6734   -8.1408   33.8704 H   0  0  0  0  0  0  0  0  0  0  0  0
   -0.5116   -9.2065   29.2725 H   0  0  0  0  0  0  0  0  0  0  0  0
   -1.7274   -2.3919   28.7361 H   0  0  0  0  0  0  0  0  0  0  0  0
    0.0226    1.7327   29.2785 H   0  0  0  0  0  0  0  0  0  0  0  0
  1  2  2  0
  2  3  2  0
  2  4  1  0
  4  5  1  0
  5  6  1  0
  6  7  1  0
  7  8  2  0
  8  9  1  0
  9 10  1  0
 10 11  1  0
 11 12  1  0
 12 13  2  0
 13 14  1  0
 14 15  2  0
 15 16  1  0
 16 17  2  0
  9 18  2  0
 18 19  1  0
 19 20  1  0
 20 21  2  0
 21 22  1  0
 22 23  2  0
  2 24  1  0
 24 25  2  0
 25 26  1  0
 26 27  1  0
 27 28  2  0
 23  7  1  0
 28 24  1  0
 17 12  1  0
 23 19  1  0
  4 29  1  0
  5 30  1  0
  5 31  1  0
  6 32  1  0
  6 33  1  0
 10 34  1  0
 10 35  1  0
 11 36  1  0
 11 37  1  0
 13 38  1  0
 14 39  1  0
 16 40  1  0
 17 41  1  0
 18 42  1  0
 21 43  1  0
 25 44  1  0
 27 45  1  0
M  END
>  <Energy>  (50) 
40.017652448915435

>  <compound_id>  (50) 
187

>  <target_id>  (50) 
1

>  <reference_id>  (50) 
165

>  <inspiration_ids>  (50) 
[197, 165]

>  <energy_score>  (50) 
-67.47867762568671

>  <distance_score>  (50) 
0.5876508183292735

>  <path>  (50) 
/opt/xchem-fragalysis-2/maxwin/BulkDock/SCRATCH/505737/C187-P165/C187-P165.minimised.mol

>  <scratch_subdir>  (50) 
/opt/xchem-fragalysis-2/maxwin/BulkDock/SCRATCH/505737/C187-P165

>  <fragmenstein_runtime>  (50) 
2.4564149379730225

>  <fragmenstein_outcome>  (50) 
acceptable

>  <fragmenstein_mode>  (50) 
expansion

>  <fragmenstein_error>  (50) 


$$$$
C188-P197
     RDKit          3D

 53 56  0  0  0  0  0  0  0  0999 V2000
    2.0051   -2.5764   32.9138 C   0  0  0  0  0  0  0  0  0  0  0  0
    0.7541   -2.6657   32.0362 C   0  0  0  0  0  0  0  0  0  0  0  0
   -0.3478   -2.0132   32.7624 N   0  0  0  0  0  0  0  0  0  0  0  0
   -1.7903   -1.7348   31.9373 S   0  0  0  0  0  0  0  0  0  0  0  0
   -2.4614   -2.9885   31.6619 O   0  0  0  0  0  0  0  0  0  0  0  0
   -2.4668   -0.6887   32.6720 O   0  0  0  0  0  0  0  0  0  0  0  0
   -1.4036   -1.0540   30.3822 C   0  0  0  0  0  0  0  0  0  0  0  0
   -1.4601   -1.7745   29.2057 C   0  0  0  0  0  0  0  0  0  0  0  0
   -0.9453   -0.7950   27.9063 S   0  0  0  0  0  0  0  0  0  0  0  0
   -0.6613    0.4907   29.0019 C   0  0  0  0  0  0  0  0  0  0  0  0
   -0.8909    0.2376   30.2703 N   0  0  0  0  0  0  0  0  0  0  0  0
    0.4396   -4.0963   31.7033 C   0  0  0  0  0  0  0  0  0  0  0  0
   -0.4386   -4.8641   32.3740 C   0  0  0  0  0  0  0  0  0  0  0  0
   -0.6575   -6.1975   32.1050 N   0  0  0  0  0  0  0  0  0  0  0  0
   -1.2211   -7.0369   33.1444 C   0  0  0  0  0  0  0  0  0  0  0  0
   -1.6083   -8.2613   32.5577 O   0  0  0  0  0  0  0  0  0  0  0  0
   -0.2590   -7.2909   34.2674 C   0  0  0  0  0  0  0  0  0  0  0  0
   -0.0008   -6.1414   35.2570 C   0  0  0  0  0  0  0  0  0  0  0  0
   -1.1986   -5.7148   35.9780 N   0  0  0  0  0  0  0  0  0  0  0  0
    1.0415   -6.7159   36.2246 C   0  0  0  0  0  0  0  0  0  0  0  0
    2.1291   -7.1306   35.6474 N   0  0  0  0  0  0  0  0  0  0  0  0
    3.0527   -7.8636   36.3491 C   0  0  0  0  0  0  0  0  0  0  0  0
    3.9807   -8.4047   35.7609 O   0  0  0  0  0  0  0  0  0  0  0  0
    2.7381   -8.0069   37.7491 C   0  0  0  0  0  0  0  0  0  0  0  0
    3.6854   -8.8688   38.8590 S   0  0  0  0  0  0  0  0  0  0  0  0
    2.5352   -8.6051   40.1097 C   0  0  0  0  0  0  0  0  0  0  0  0
    1.4624   -7.8456   39.6851 C   0  0  0  0  0  0  0  0  0  0  0  0
    1.5968   -7.5105   38.3207 C   0  0  0  0  0  0  0  0  0  0  0  0
    0.7289   -6.8175   37.5661 N   0  0  0  0  0  0  0  0  0  0  0  0
   -0.0201   -6.7670   31.0153 N   0  0  0  0  0  0  0  0  0  0  0  0
    0.8876   -6.0087   30.3003 C   0  0  0  0  0  0  0  0  0  0  0  0
    1.1349   -4.7202   30.5840 C   0  0  0  0  0  0  0  0  0  0  0  0
    2.2348   -1.5318   33.1528 H   0  0  0  0  0  0  0  0  0  0  0  0
    1.8707   -3.1073   33.8638 H   0  0  0  0  0  0  0  0  0  0  0  0
    2.8780   -3.0035   32.4082 H   0  0  0  0  0  0  0  0  0  0  0  0
    0.9566   -2.0970   31.1218 H   0  0  0  0  0  0  0  0  0  0  0  0
   -0.5341   -2.3701   33.6970 H   0  0  0  0  0  0  0  0  0  0  0  0
   -1.7779   -2.7968   29.0492 H   0  0  0  0  0  0  0  0  0  0  0  0
   -0.2992    1.4515   28.6632 H   0  0  0  0  0  0  0  0  0  0  0  0
   -1.0095   -4.4927   33.2190 H   0  0  0  0  0  0  0  0  0  0  0  0
   -2.0990   -6.5738   33.5644 H   0  0  0  0  0  0  0  0  0  0  0  0
   -2.0560   -7.9582   31.7496 H   0  0  0  0  0  0  0  0  0  0  0  0
   -0.6149   -8.1574   34.8412 H   0  0  0  0  0  0  0  0  0  0  0  0
    0.6857   -7.6178   33.8161 H   0  0  0  0  0  0  0  0  0  0  0  0
    0.4661   -5.2813   34.7711 H   0  0  0  0  0  0  0  0  0  0  0  0
   -0.9901   -4.9454   36.6117 H   0  0  0  0  0  0  0  0  0  0  0  0
   -1.6151   -6.4815   36.4993 H   0  0  0  0  0  0  0  0  0  0  0  0
    2.6999   -9.0292   41.0912 H   0  0  0  0  0  0  0  0  0  0  0  0
    0.6325   -7.5861   40.3294 H   0  0  0  0  0  0  0  0  0  0  0  0
   -0.1567   -6.4730   37.9127 H   0  0  0  0  0  0  0  0  0  0  0  0
    0.2028   -7.7640   31.0819 H   0  0  0  0  0  0  0  0  0  0  0  0
    1.3879   -6.5277   29.4940 H   0  0  0  0  0  0  0  0  0  0  0  0
    1.8436   -4.1463   29.9980 H   0  0  0  0  0  0  0  0  0  0  0  0
  1  2  1  0
  2  3  1  0
  3  4  1  0
  4  5  2  0
  4  6  2  0
  4  7  1  0
  7  8  2  0
  8  9  1  0
  9 10  1  0
 10 11  2  0
  2 12  1  0
 12 13  2  0
 13 14  1  0
 14 15  1  0
 15 16  1  0
 15 17  1  0
 17 18  1  0
 18 19  1  0
 18 20  1  0
 20 21  2  0
 21 22  1  0
 22 23  2  0
 22 24  1  0
 24 25  1  0
 25 26  1  0
 26 27  2  0
 27 28  1  0
 28 29  1  0
 14 30  1  0
 30 31  1  0
 31 32  2  0
 11  7  1  0
 32 12  1  0
 29 20  1  0
 28 24  2  0
  1 33  1  0
  1 34  1  0
  1 35  1  0
  2 36  1  0
  3 37  1  0
  8 38  1  0
 10 39  1  0
 13 40  1  0
 15 41  1  0
 16 42  1  0
 17 43  1  0
 17 44  1  0
 18 45  1  0
 19 46  1  0
 19 47  1  0
 26 48  1  0
 27 49  1  0
 29 50  1  0
 30 51  1  0
 31 52  1  0
 32 53  1  0
M  END
>  <Energy>  (51) 
30.630079408569898

>  <compound_id>  (51) 
188

>  <target_id>  (51) 
1

>  <reference_id>  (51) 
197

>  <inspiration_ids>  (51) 
[197, 166]

>  <energy_score>  (51) 
-89.69921948409797

>  <distance_score>  (51) 
1.4686138436444807

>  <path>  (51) 
/opt/xchem-fragalysis-2/maxwin/BulkDock/SCRATCH/505737/C188-P197/C188-P197.minimised.mol

>  <scratch_subdir>  (51) 
/opt/xchem-fragalysis-2/maxwin/BulkDock/SCRATCH/505737/C188-P197

>  <fragmenstein_runtime>  (51) 
3.2185280323028564

>  <fragmenstein_outcome>  (51) 
too moved

>  <fragmenstein_mode>  (51) 
expansion

>  <fragmenstein_error>  (51) 


$$$$
C188-P166
     RDKit          3D

 53 56  0  0  0  0  0  0  0  0999 V2000
   -1.7760   -3.5397   32.3338 C   0  0  0  0  0  0  0  0  0  0  0  0
   -0.4146   -3.5212   31.6878 C   0  0  0  0  0  0  0  0  0  0  0  0
   -0.4342   -2.5842   30.5640 N   0  0  0  0  0  0  0  0  0  0  0  0
   -1.1096   -1.0972   30.9981 S   0  0  0  0  0  0  0  0  0  0  0  0
   -2.5419   -1.2406   31.1299 O   0  0  0  0  0  0  0  0  0  0  0  0
   -0.3063   -0.5659   32.0760 O   0  0  0  0  0  0  0  0  0  0  0  0
   -0.9075   -0.0765   29.6313 C   0  0  0  0  0  0  0  0  0  0  0  0
   -1.3876   -0.4320   28.3865 C   0  0  0  0  0  0  0  0  0  0  0  0
   -1.1107    0.8527   27.2973 S   0  0  0  0  0  0  0  0  0  0  0  0
   -0.3042    1.7178   28.5350 C   0  0  0  0  0  0  0  0  0  0  0  0
   -0.2294    1.1283   29.7060 N   0  0  0  0  0  0  0  0  0  0  0  0
    0.0655   -4.8740   31.1688 C   0  0  0  0  0  0  0  0  0  0  0  0
   -0.5896   -6.0393   31.4609 C   0  0  0  0  0  0  0  0  0  0  0  0
   -0.1779   -6.7249   32.6633 N   0  0  0  0  0  0  0  0  0  0  0  0
   -1.0041   -6.5428   33.8890 C   0  0  0  0  0  0  0  0  0  0  0  0
   -0.9794   -7.7242   34.6561 O   0  0  0  0  0  0  0  0  0  0  0  0
   -0.5618   -5.2971   34.6927 C   0  0  0  0  0  0  0  0  0  0  0  0
   -0.1909   -5.3840   36.1568 C   0  0  0  0  0  0  0  0  0  0  0  0
   -1.3980   -5.3669   36.9884 N   0  0  0  0  0  0  0  0  0  0  0  0
    0.7345   -6.5401   36.5690 C   0  0  0  0  0  0  0  0  0  0  0  0
    1.6436   -6.9344   35.7213 N   0  0  0  0  0  0  0  0  0  0  0  0
    2.4792   -7.9778   36.0797 C   0  0  0  0  0  0  0  0  0  0  0  0
    3.1220   -8.5795   35.2257 O   0  0  0  0  0  0  0  0  0  0  0  0
    2.4939   -8.2565   37.4939 C   0  0  0  0  0  0  0  0  0  0  0  0
    3.6667   -9.1713   38.3048 S   0  0  0  0  0  0  0  0  0  0  0  0
    2.8323   -8.9958   39.8008 C   0  0  0  0  0  0  0  0  0  0  0  0
    1.6924   -8.2270   39.6770 C   0  0  0  0  0  0  0  0  0  0  0  0
    1.5300   -7.7957   38.3445 C   0  0  0  0  0  0  0  0  0  0  0  0
    0.5629   -7.0080   37.8617 N   0  0  0  0  0  0  0  0  0  0  0  0
    1.1991   -6.6633   32.9168 N   0  0  0  0  0  0  0  0  0  0  0  0
    1.9921   -5.7076   32.3117 C   0  0  0  0  0  0  0  0  0  0  0  0
    1.5255   -4.9080   31.3456 C   0  0  0  0  0  0  0  0  0  0  0  0
   -1.8957   -2.7366   33.0696 H   0  0  0  0  0  0  0  0  0  0  0  0
   -2.5615   -3.4516   31.5824 H   0  0  0  0  0  0  0  0  0  0  0  0
   -1.9403   -4.4544   32.8619 H   0  0  0  0  0  0  0  0  0  0  0  0
    0.3001   -3.1461   32.4346 H   0  0  0  0  0  0  0  0  0  0  0  0
    0.4897   -2.4403   30.1583 H   0  0  0  0  0  0  0  0  0  0  0  0
   -1.9119   -1.3310   28.0858 H   0  0  0  0  0  0  0  0  0  0  0  0
    0.1109    2.7018   28.3544 H   0  0  0  0  0  0  0  0  0  0  0  0
   -0.3950   -6.8387   30.7379 H   0  0  0  0  0  0  0  0  0  0  0  0
   -2.0435   -6.4324   33.5862 H   0  0  0  0  0  0  0  0  0  0  0  0
   -1.0498   -8.4588   34.0197 H   0  0  0  0  0  0  0  0  0  0  0  0
    0.2506   -4.7627   34.1924 H   0  0  0  0  0  0  0  0  0  0  0  0
   -1.3763   -4.5693   34.6725 H   0  0  0  0  0  0  0  0  0  0  0  0
    0.3615   -4.4676   36.4062 H   0  0  0  0  0  0  0  0  0  0  0  0
   -1.2105   -5.0243   37.9264 H   0  0  0  0  0  0  0  0  0  0  0  0
   -1.7700   -6.3174   37.0360 H   0  0  0  0  0  0  0  0  0  0  0  0
    3.2242   -9.4632   40.6936 H   0  0  0  0  0  0  0  0  0  0  0  0
    1.0348   -7.9985   40.5055 H   0  0  0  0  0  0  0  0  0  0  0  0
   -0.1672   -6.6131   38.4386 H   0  0  0  0  0  0  0  0  0  0  0  0
    1.4919   -6.9171   33.8720 H   0  0  0  0  0  0  0  0  0  0  0  0
    3.0067   -5.6553   32.6832 H   0  0  0  0  0  0  0  0  0  0  0  0
    2.1493   -4.1642   30.8654 H   0  0  0  0  0  0  0  0  0  0  0  0
  1  2  1  0
  2  3  1  0
  3  4  1  0
  4  5  2  0
  4  6  2  0
  4  7  1  0
  7  8  2  0
  8  9  1  0
  9 10  1  0
 10 11  2  0
  2 12  1  0
 12 13  2  0
 13 14  1  0
 14 15  1  0
 15 16  1  0
 15 17  1  0
 17 18  1  0
 18 19  1  0
 18 20  1  0
 20 21  2  0
 21 22  1  0
 22 23  2  0
 22 24  1  0
 24 25  1  0
 25 26  1  0
 26 27  2  0
 27 28  1  0
 28 29  1  0
 14 30  1  0
 30 31  1  0
 31 32  2  0
 11  7  1  0
 32 12  1  0
 29 20  1  0
 28 24  2  0
  1 33  1  0
  1 34  1  0
  1 35  1  0
  2 36  1  0
  3 37  1  0
  8 38  1  0
 10 39  1  0
 13 40  1  0
 15 41  1  0
 16 42  1  0
 17 43  1  0
 17 44  1  0
 18 45  1  0
 19 46  1  0
 19 47  1  0
 26 48  1  0
 27 49  1  0
 29 50  1  0
 30 51  1  0
 31 52  1  0
 32 53  1  0
M  END
>  <Energy>  (52) 
102.31249857428207

>  <compound_id>  (52) 
188

>  <target_id>  (52) 
1

>  <reference_id>  (52) 
166

>  <inspiration_ids>  (52) 
[197, 166]

>  <energy_score>  (52) 
-18.016800318385947

>  <distance_score>  (52) 
1.5949223006942073

>  <path>  (52) 
/opt/xchem-fragalysis-2/maxwin/BulkDock/SCRATCH/505737/C188-P166/C188-P166.minimised.mol

>  <scratch_subdir>  (52) 
/opt/xchem-fragalysis-2/maxwin/BulkDock/SCRATCH/505737/C188-P166

>  <fragmenstein_runtime>  (52) 
3.017204761505127

>  <fragmenstein_outcome>  (52) 
too moved

>  <fragmenstein_mode>  (52) 
expansion

>  <fragmenstein_error>  (52) 


$$$$
C190-P197
     RDKit          3D

 67 71  0  0  0  0  0  0  0  0999 V2000
   -1.0815   -6.6735   35.0778 C   0  0  0  0  0  0  0  0  0  0  0  0
   -0.8277   -6.7943   33.6067 C   0  0  0  0  0  0  0  0  0  0  0  0
   -1.3018   -7.8952   32.9458 C   0  0  0  0  0  0  0  0  0  0  0  0
   -0.9232   -8.0048   31.6448 C   0  0  0  0  0  0  0  0  0  0  0  0
   -1.2441   -9.1165   30.9433 O   0  0  0  0  0  0  0  0  0  0  0  0
   -0.1812   -7.1302   30.9764 N   0  0  0  0  0  0  0  0  0  0  0  0
    0.1619   -6.0295   31.6701 C   0  0  0  0  0  0  0  0  0  0  0  0
    0.8277   -4.9636   30.8498 C   0  0  0  0  0  0  0  0  0  0  0  0
    1.3799   -3.7096   31.5238 C   0  0  0  0  0  0  0  0  0  0  0  0
    2.4583   -4.0737   32.4867 N   0  0  0  0  0  0  0  0  0  0  0  0
    2.1120   -3.6762   33.8741 C   0  0  0  0  0  0  0  0  0  0  0  0
    2.7033   -4.3696   35.1319 C   0  0  0  0  0  0  0  0  0  0  0  0
    4.5078   -4.4876   35.0022 S   0  0  0  0  0  0  0  0  0  0  0  0
    2.0798   -6.0288   35.3514 Cl  0  0  0  0  0  0  0  0  0  0  0  0
    2.2665   -3.4795   36.3596 C   0  0  0  0  0  0  0  0  0  0  0  0
    3.0386   -2.9270   37.0468 O   0  0  0  0  0  0  0  0  0  0  0  0
    0.7014   -3.4361   36.3551 N   0  0  0  0  0  0  0  0  0  0  0  0
   -0.2209   -2.6297   37.1339 C   0  0  0  0  0  0  0  0  0  0  0  0
   -0.0934   -2.9593   38.6362 C   0  0  0  0  0  0  0  0  0  0  0  0
   -1.0577   -3.3801   39.4152 N   0  0  0  0  0  0  0  0  0  0  0  0
   -0.4255   -3.5530   40.6242 C   0  0  0  0  0  0  0  0  0  0  0  0
   -1.1807   -4.0802   41.8924 C   0  0  0  0  0  0  0  0  0  0  0  0
   -2.5162   -4.4208   41.8944 C   0  0  0  0  0  0  0  0  0  0  0  0
   -2.9510   -4.8808   43.1722 C   0  0  0  0  0  0  0  0  0  0  0  0
   -1.9299   -4.8684   44.0971 C   0  0  0  0  0  0  0  0  0  0  0  0
   -0.4598   -4.3060   43.4217 S   0  0  0  0  0  0  0  0  0  0  0  0
    0.8753   -3.2312   40.6249 N   0  0  0  0  0  0  0  0  0  0  0  0
    1.0664   -2.8722   39.3500 N   0  0  0  0  0  0  0  0  0  0  0  0
   -1.6635   -2.6037   36.5692 C   0  0  0  0  0  0  0  0  0  0  0  0
   -1.6902   -1.0860   36.8285 C   0  0  0  0  0  0  0  0  0  0  0  0
   -0.1506   -1.1141   36.7997 C   0  0  0  0  0  0  0  0  0  0  0  0
    0.4526   -2.7498   32.1162 N   0  0  0  0  0  0  0  0  0  0  0  0
   -1.1272   -2.4543   31.6815 S   0  0  0  0  0  0  0  0  0  0  0  0
   -1.6372   -1.5237   32.6657 O   0  0  0  0  0  0  0  0  0  0  0  0
   -1.8336   -3.6680   31.3461 O   0  0  0  0  0  0  0  0  0  0  0  0
   -1.0444   -1.5115   30.2201 C   0  0  0  0  0  0  0  0  0  0  0  0
   -1.3312   -2.0152   28.9722 C   0  0  0  0  0  0  0  0  0  0  0  0
   -1.1163   -0.7980   27.7980 S   0  0  0  0  0  0  0  0  0  0  0  0
   -0.6172    0.2892   29.0241 C   0  0  0  0  0  0  0  0  0  0  0  0
   -0.5637   -0.1996   30.2438 N   0  0  0  0  0  0  0  0  0  0  0  0
   -0.1060   -5.8417   32.9789 N   0  0  0  0  0  0  0  0  0  0  0  0
   -2.0944   -7.0060   35.2936 H   0  0  0  0  0  0  0  0  0  0  0  0
   -0.3993   -7.3127   35.6437 H   0  0  0  0  0  0  0  0  0  0  0  0
   -0.9974   -5.6399   35.4134 H   0  0  0  0  0  0  0  0  0  0  0  0
   -1.9081   -8.6449   33.4239 H   0  0  0  0  0  0  0  0  0  0  0  0
   -0.5091   -9.1617   30.2997 H   0  0  0  0  0  0  0  0  0  0  0  0
    0.1314   -4.6703   30.0549 H   0  0  0  0  0  0  0  0  0  0  0  0
    1.6626   -5.4540   30.3277 H   0  0  0  0  0  0  0  0  0  0  0  0
    1.8846   -3.1496   30.7234 H   0  0  0  0  0  0  0  0  0  0  0  0
    3.3220   -3.5980   32.2228 H   0  0  0  0  0  0  0  0  0  0  0  0
    1.0336   -3.7918   33.9766 H   0  0  0  0  0  0  0  0  0  0  0  0
    2.3131   -2.5974   33.9565 H   0  0  0  0  0  0  0  0  0  0  0  0
    4.4978   -5.3583   33.9845 H   0  0  0  0  0  0  0  0  0  0  0  0
    0.3450   -4.1025   35.6774 H   0  0  0  0  0  0  0  0  0  0  0  0
   -3.1478   -4.3517   41.0166 H   0  0  0  0  0  0  0  0  0  0  0  0
   -3.9588   -5.2070   43.3962 H   0  0  0  0  0  0  0  0  0  0  0  0
   -1.9707   -5.1646   45.1360 H   0  0  0  0  0  0  0  0  0  0  0  0
    1.9949   -2.6121   39.0259 H   0  0  0  0  0  0  0  0  0  0  0  0
   -2.4140   -3.1780   37.1162 H   0  0  0  0  0  0  0  0  0  0  0  0
   -1.7391   -2.8610   35.5056 H   0  0  0  0  0  0  0  0  0  0  0  0
   -2.1681   -0.4814   36.0535 H   0  0  0  0  0  0  0  0  0  0  0  0
   -2.1093   -0.8114   37.8031 H   0  0  0  0  0  0  0  0  0  0  0  0
    0.3387   -0.4671   37.5340 H   0  0  0  0  0  0  0  0  0  0  0  0
    0.2673   -0.8872   35.8106 H   0  0  0  0  0  0  0  0  0  0  0  0
    0.8884   -1.8462   32.3066 H   0  0  0  0  0  0  0  0  0  0  0  0
   -1.6617   -3.0070   28.7054 H   0  0  0  0  0  0  0  0  0  0  0  0
   -0.3489    1.3120   28.7937 H   0  0  0  0  0  0  0  0  0  0  0  0
  1  2  1  0
  2  3  2  0
  3  4  1  0
  4  5  1  0
  4  6  2  0
  6  7  1  0
  7  8  1  0
  8  9  1  0
  9 10  1  0
 10 11  1  0
 11 12  1  0
 12 13  1  0
 12 14  1  0
 12 15  1  0
 15 16  2  0
 15 17  1  0
 17 18  1  0
 18 19  1  0
 19 20  2  0
 20 21  1  0
 21 22  1  0
 22 23  2  0
 23 24  1  0
 24 25  2  0
 25 26  1  0
 21 27  2  0
 27 28  1  0
 18 29  1  0
 29 30  1  0
 30 31  1  0
  9 32  1  0
 32 33  1  0
 33 34  2  0
 33 35  2  0
 33 36  1  0
 36 37  2  0
 37 38  1  0
 38 39  1  0
 39 40  2  0
  7 41  2  0
 41  2  1  0
 31 18  1  0
 40 36  1  0
 28 19  1  0
 26 22  1  0
  1 42  1  0
  1 43  1  0
  1 44  1  0
  3 45  1  0
  5 46  1  0
  8 47  1  0
  8 48  1  0
  9 49  1  0
 10 50  1  0
 11 51  1  0
 11 52  1  0
 13 53  1  0
 17 54  1  0
 23 55  1  0
 24 56  1  0
 25 57  1  0
 28 58  1  0
 29 59  1  0
 29 60  1  0
 30 61  1  0
 30 62  1  0
 31 63  1  0
 31 64  1  0
 32 65  1  0
 37 66  1  0
 39 67  1  0
M  END
>  <Energy>  (53) 
36.327503500782456

>  <compound_id>  (53) 
190

>  <target_id>  (53) 
1

>  <reference_id>  (53) 
197

>  <inspiration_ids>  (53) 
[197, 168]

>  <energy_score>  (53) 
-94.57857763518307

>  <distance_score>  (53) 
1.8295762500774577

>  <path>  (53) 
/opt/xchem-fragalysis-2/maxwin/BulkDock/SCRATCH/505737/C190-P197/C190-P197.minimised.mol

>  <scratch_subdir>  (53) 
/opt/xchem-fragalysis-2/maxwin/BulkDock/SCRATCH/505737/C190-P197

>  <fragmenstein_runtime>  (53) 
7.442121982574463

>  <fragmenstein_outcome>  (53) 
too moved

>  <fragmenstein_mode>  (53) 
expansion

>  <fragmenstein_error>  (53) 


$$$$
C190-P168
     RDKit          3D

 67 71  0  0  0  0  0  0  0  0999 V2000
   -1.0758   -6.6468   35.2108 C   0  0  0  0  0  0  0  0  0  0  0  0
   -0.8641   -6.7438   33.7335 C   0  0  0  0  0  0  0  0  0  0  0  0
   -1.3786   -7.7944   33.0279 C   0  0  0  0  0  0  0  0  0  0  0  0
   -0.9675   -7.8795   31.7307 C   0  0  0  0  0  0  0  0  0  0  0  0
   -1.2937   -8.9700   30.9983 O   0  0  0  0  0  0  0  0  0  0  0  0
   -0.1801   -7.0127   31.0992 N   0  0  0  0  0  0  0  0  0  0  0  0
    0.1839   -5.9519   31.8365 C   0  0  0  0  0  0  0  0  0  0  0  0
    0.9237   -4.8720   31.1079 C   0  0  0  0  0  0  0  0  0  0  0  0
    1.3378   -3.6097   31.8762 C   0  0  0  0  0  0  0  0  0  0  0  0
    2.4319   -3.9258   32.8215 N   0  0  0  0  0  0  0  0  0  0  0  0
    2.0535   -3.8670   34.2635 C   0  0  0  0  0  0  0  0  0  0  0  0
    2.8258   -4.7936   35.2429 C   0  0  0  0  0  0  0  0  0  0  0  0
    4.6249   -4.7328   34.9496 S   0  0  0  0  0  0  0  0  0  0  0  0
    2.3391   -6.5188   35.0280 Cl  0  0  0  0  0  0  0  0  0  0  0  0
    2.5448   -4.2669   36.6951 C   0  0  0  0  0  0  0  0  0  0  0  0
    3.0400   -3.2763   37.0763 O   0  0  0  0  0  0  0  0  0  0  0  0
    1.4979   -5.1947   37.3733 N   0  0  0  0  0  0  0  0  0  0  0  0
    0.7682   -5.0423   38.6298 C   0  0  0  0  0  0  0  0  0  0  0  0
    0.0727   -3.6507   38.6812 C   0  0  0  0  0  0  0  0  0  0  0  0
   -1.2110   -3.4263   38.8201 N   0  0  0  0  0  0  0  0  0  0  0  0
   -1.2867   -2.0554   38.8475 C   0  0  0  0  0  0  0  0  0  0  0  0
   -2.6452   -1.3056   39.0676 C   0  0  0  0  0  0  0  0  0  0  0  0
   -3.8349   -1.9546   39.3205 C   0  0  0  0  0  0  0  0  0  0  0  0
   -4.9172   -1.0430   39.4949 C   0  0  0  0  0  0  0  0  0  0  0  0
   -4.5101    0.2670   39.3655 C   0  0  0  0  0  0  0  0  0  0  0  0
   -2.8318    0.3890   39.0452 S   0  0  0  0  0  0  0  0  0  0  0  0
   -0.1163   -1.4271   38.6777 N   0  0  0  0  0  0  0  0  0  0  0  0
    0.7334   -2.4586   38.5981 N   0  0  0  0  0  0  0  0  0  0  0  0
    1.6140   -5.3793   39.8870 C   0  0  0  0  0  0  0  0  0  0  0  0
    1.0753   -6.8207   39.7928 C   0  0  0  0  0  0  0  0  0  0  0  0
   -0.1201   -6.2534   39.0027 C   0  0  0  0  0  0  0  0  0  0  0  0
    0.3064   -2.8091   32.5130 N   0  0  0  0  0  0  0  0  0  0  0  0
   -1.1295   -2.3809   31.7774 S   0  0  0  0  0  0  0  0  0  0  0  0
   -1.8170   -1.5032   32.6975 O   0  0  0  0  0  0  0  0  0  0  0  0
   -1.7737   -3.5421   31.2094 O   0  0  0  0  0  0  0  0  0  0  0  0
   -0.7253   -1.3367   30.4375 C   0  0  0  0  0  0  0  0  0  0  0  0
   -0.9252   -1.6532   29.1102 C   0  0  0  0  0  0  0  0  0  0  0  0
   -0.5187   -0.3029   28.1371 S   0  0  0  0  0  0  0  0  0  0  0  0
   -0.0060    0.5430   29.5304 C   0  0  0  0  0  0  0  0  0  0  0  0
   -0.1130   -0.1027   30.6709 N   0  0  0  0  0  0  0  0  0  0  0  0
   -0.0927   -5.8144   33.1437 N   0  0  0  0  0  0  0  0  0  0  0  0
   -0.8714   -5.6349   35.5717 H   0  0  0  0  0  0  0  0  0  0  0  0
   -2.1070   -6.8935   35.4600 H   0  0  0  0  0  0  0  0  0  0  0  0
   -0.4261   -7.3562   35.7306 H   0  0  0  0  0  0  0  0  0  0  0  0
   -2.0221   -8.5335   33.4716 H   0  0  0  0  0  0  0  0  0  0  0  0
   -0.5034   -9.0761   30.4296 H   0  0  0  0  0  0  0  0  0  0  0  0
    0.3200   -4.5806   30.2396 H   0  0  0  0  0  0  0  0  0  0  0  0
    1.8273   -5.3320   30.6833 H   0  0  0  0  0  0  0  0  0  0  0  0
    1.8007   -2.9529   31.1262 H   0  0  0  0  0  0  0  0  0  0  0  0
    3.1911   -3.2568   32.6787 H   0  0  0  0  0  0  0  0  0  0  0  0
    0.9896   -4.0695   34.4228 H   0  0  0  0  0  0  0  0  0  0  0  0
    2.1867   -2.8219   34.5785 H   0  0  0  0  0  0  0  0  0  0  0  0
    4.5431   -5.1088   33.6662 H   0  0  0  0  0  0  0  0  0  0  0  0
    1.2238   -5.9289   36.7244 H   0  0  0  0  0  0  0  0  0  0  0  0
   -3.9139   -3.0323   39.3998 H   0  0  0  0  0  0  0  0  0  0  0  0
   -5.9364   -1.3334   39.7161 H   0  0  0  0  0  0  0  0  0  0  0  0
   -5.1104    1.1619   39.4533 H   0  0  0  0  0  0  0  0  0  0  0  0
    1.7270   -2.2933   38.4533 H   0  0  0  0  0  0  0  0  0  0  0  0
    1.3025   -4.8595   40.8015 H   0  0  0  0  0  0  0  0  0  0  0  0
    2.6993   -5.2820   39.7875 H   0  0  0  0  0  0  0  0  0  0  0  0
    1.7117   -7.4941   39.2070 H   0  0  0  0  0  0  0  0  0  0  0  0
    0.8311   -7.3003   40.7439 H   0  0  0  0  0  0  0  0  0  0  0  0
   -0.9824   -6.0187   39.6378 H   0  0  0  0  0  0  0  0  0  0  0  0
   -0.4575   -6.8773   38.1726 H   0  0  0  0  0  0  0  0  0  0  0  0
    0.6646   -1.9796   32.9864 H   0  0  0  0  0  0  0  0  0  0  0  0
   -1.3473   -2.5501   28.6771 H   0  0  0  0  0  0  0  0  0  0  0  0
    0.3879    1.5501   29.4647 H   0  0  0  0  0  0  0  0  0  0  0  0
  1  2  1  0
  2  3  2  0
  3  4  1  0
  4  5  1  0
  4  6  2  0
  6  7  1  0
  7  8  1  0
  8  9  1  0
  9 10  1  0
 10 11  1  0
 11 12  1  0
 12 13  1  0
 12 14  1  0
 12 15  1  0
 15 16  2  0
 15 17  1  0
 17 18  1  0
 18 19  1  0
 19 20  2  0
 20 21  1  0
 21 22  1  0
 22 23  2  0
 23 24  1  0
 24 25  2  0
 25 26  1  0
 21 27  2  0
 27 28  1  0
 18 29  1  0
 29 30  1  0
 30 31  1  0
  9 32  1  0
 32 33  1  0
 33 34  2  0
 33 35  2  0
 33 36  1  0
 36 37  2  0
 37 38  1  0
 38 39  1  0
 39 40  2  0
  7 41  2  0
 41  2  1  0
 31 18  1  0
 40 36  1  0
 28 19  1  0
 26 22  1  0
  1 42  1  0
  1 43  1  0
  1 44  1  0
  3 45  1  0
  5 46  1  0
  8 47  1  0
  8 48  1  0
  9 49  1  0
 10 50  1  0
 11 51  1  0
 11 52  1  0
 13 53  1  0
 17 54  1  0
 23 55  1  0
 24 56  1  0
 25 57  1  0
 28 58  1  0
 29 59  1  0
 29 60  1  0
 30 61  1  0
 30 62  1  0
 31 63  1  0
 31 64  1  0
 32 65  1  0
 37 66  1  0
 39 67  1  0
M  END
>  <Energy>  (54) 
28.003632014420926

>  <compound_id>  (54) 
190

>  <target_id>  (54) 
1

>  <reference_id>  (54) 
168

>  <inspiration_ids>  (54) 
[197, 168]

>  <energy_score>  (54) 
-102.90244912154512

>  <distance_score>  (54) 
1.349305981814

>  <path>  (54) 
/opt/xchem-fragalysis-2/maxwin/BulkDock/SCRATCH/505737/C190-P168/C190-P168.minimised.mol

>  <scratch_subdir>  (54) 
/opt/xchem-fragalysis-2/maxwin/BulkDock/SCRATCH/505737/C190-P168

>  <fragmenstein_runtime>  (54) 
8.497984170913696

>  <fragmenstein_outcome>  (54) 
too moved

>  <fragmenstein_mode>  (54) 
expansion

>  <fragmenstein_error>  (54) 


$$$$
C191-P197
     RDKit          3D

 55 58  0  0  0  0  0  0  0  0999 V2000
   -0.2316   -6.0959   34.6971 C   0  0  0  0  0  0  0  0  0  0  0  0
   -0.2369   -6.5377   33.2641 C   0  0  0  0  0  0  0  0  0  0  0  0
   -0.9109   -7.6748   32.8914 C   0  0  0  0  0  0  0  0  0  0  0  0
   -0.7692   -8.0277   31.5782 C   0  0  0  0  0  0  0  0  0  0  0  0
   -1.2675   -9.2029   31.1273 O   0  0  0  0  0  0  0  0  0  0  0  0
   -0.0978   -7.3463   30.6522 N   0  0  0  0  0  0  0  0  0  0  0  0
    0.4413   -6.1945   31.0814 C   0  0  0  0  0  0  0  0  0  0  0  0
    0.8385   -5.2366   29.9935 C   0  0  0  0  0  0  0  0  0  0  0  0
    1.6277   -3.9716   30.3459 C   0  0  0  0  0  0  0  0  0  0  0  0
    3.0825   -4.2157   30.4674 N   0  0  0  0  0  0  0  0  0  0  0  0
    3.7889   -4.3949   29.1623 C   0  0  0  0  0  0  0  0  0  0  0  0
    4.1598   -5.8199   28.5724 C   0  0  0  0  0  0  0  0  0  0  0  0
    5.5955   -6.0510   28.7701 C   0  0  0  0  0  0  0  0  0  0  0  0
    6.4875   -7.4162   28.3489 S   0  0  0  0  0  0  0  0  0  0  0  0
    7.9215   -6.7169   28.9784 C   0  0  0  0  0  0  0  0  0  0  0  0
    7.7009   -5.4389   29.4575 C   0  0  0  0  0  0  0  0  0  0  0  0
    6.3369   -5.0450   29.3080 C   0  0  0  0  0  0  0  0  0  0  0  0
    5.6386   -3.7722   29.6972 C   0  0  0  0  0  0  0  0  0  0  0  0
    4.5318   -3.1726   28.7298 N   0  0  0  0  0  0  0  0  0  0  0  0
    5.1155   -2.8339   27.4701 C   0  0  0  0  0  0  0  0  0  0  0  0
    5.2377   -3.4866   26.4624 O   0  0  0  0  0  0  0  0  0  0  0  0
    5.5560   -1.3525   27.3936 C   0  0  0  0  0  0  0  0  0  0  0  0
    4.1549   -0.4643   26.6147 S   0  0  0  0  0  0  0  0  0  0  0  0
    5.9345   -0.5667   28.9413 Cl  0  0  0  0  0  0  0  0  0  0  0  0
    1.1885   -3.3239   31.5883 N   0  0  0  0  0  0  0  0  0  0  0  0
   -0.3652   -2.6215   31.6175 S   0  0  0  0  0  0  0  0  0  0  0  0
   -0.4825   -1.8497   32.8343 O   0  0  0  0  0  0  0  0  0  0  0  0
   -1.3528   -3.6278   31.2779 O   0  0  0  0  0  0  0  0  0  0  0  0
   -0.4694   -1.4546   30.3228 C   0  0  0  0  0  0  0  0  0  0  0  0
   -1.2684   -1.6372   29.2118 C   0  0  0  0  0  0  0  0  0  0  0  0
   -1.0661   -0.3295   28.1356 S   0  0  0  0  0  0  0  0  0  0  0  0
    0.0835    0.3616   29.2005 C   0  0  0  0  0  0  0  0  0  0  0  0
    0.3297   -0.3123   30.3021 N   0  0  0  0  0  0  0  0  0  0  0  0
    0.4586   -5.7963   32.3721 N   0  0  0  0  0  0  0  0  0  0  0  0
   -1.2465   -6.0957   35.1054 H   0  0  0  0  0  0  0  0  0  0  0  0
    0.3918   -6.7705   35.2923 H   0  0  0  0  0  0  0  0  0  0  0  0
    0.1703   -5.0817   34.7875 H   0  0  0  0  0  0  0  0  0  0  0  0
   -1.4665   -8.2837   33.5897 H   0  0  0  0  0  0  0  0  0  0  0  0
   -0.5917   -9.4677   30.4727 H   0  0  0  0  0  0  0  0  0  0  0  0
   -0.0930   -4.9213   29.5072 H   0  0  0  0  0  0  0  0  0  0  0  0
    1.3769   -5.8065   29.2305 H   0  0  0  0  0  0  0  0  0  0  0  0
    1.4918   -3.2361   29.5429 H   0  0  0  0  0  0  0  0  0  0  0  0
    3.4053   -3.3242   30.8525 H   0  0  0  0  0  0  0  0  0  0  0  0
    2.9526   -4.2338   28.4625 H   0  0  0  0  0  0  0  0  0  0  0  0
    3.5484   -6.5826   29.0473 H   0  0  0  0  0  0  0  0  0  0  0  0
    3.9324   -5.8435   27.4984 H   0  0  0  0  0  0  0  0  0  0  0  0
    8.8527   -7.2656   28.9494 H   0  0  0  0  0  0  0  0  0  0  0  0
    8.4855   -4.8227   29.8802 H   0  0  0  0  0  0  0  0  0  0  0  0
    5.3607   -3.7548   30.7599 H   0  0  0  0  0  0  0  0  0  0  0  0
    6.4438   -3.0277   29.6602 H   0  0  0  0  0  0  0  0  0  0  0  0
    6.4447   -1.2772   26.7601 H   0  0  0  0  0  0  0  0  0  0  0  0
    4.2420   -1.0711   25.4184 H   0  0  0  0  0  0  0  0  0  0  0  0
    1.2210   -3.9964   32.3657 H   0  0  0  0  0  0  0  0  0  0  0  0
   -1.9381   -2.4542   28.9808 H   0  0  0  0  0  0  0  0  0  0  0  0
    0.5799    1.2951   28.9675 H   0  0  0  0  0  0  0  0  0  0  0  0
  1  2  1  0
  2  3  2  0
  3  4  1  0
  4  5  1  0
  4  6  2  0
  6  7  1  0
  7  8  1  0
  8  9  1  0
  9 10  1  0
 10 11  1  0
 11 12  1  0
 12 13  1  0
 13 14  1  0
 14 15  1  0
 15 16  2  0
 16 17  1  0
 17 18  1  0
 18 19  1  0
 19 20  1  0
 20 21  2  0
 20 22  1  0
 22 23  1  0
 22 24  1  0
  9 25  1  0
 25 26  1  0
 26 27  2  0
 26 28  2  0
 26 29  1  0
 29 30  2  0
 30 31  1  0
 31 32  1  0
 32 33  2  0
  7 34  2  0
 34  2  1  0
 19 11  1  0
 33 29  1  0
 17 13  2  0
  1 35  1  0
  1 36  1  0
  1 37  1  0
  3 38  1  0
  5 39  1  0
  8 40  1  0
  8 41  1  0
  9 42  1  0
 10 43  1  0
 11 44  1  0
 12 45  1  0
 12 46  1  0
 15 47  1  0
 16 48  1  0
 18 49  1  0
 18 50  1  0
 22 51  1  0
 23 52  1  0
 25 53  1  0
 30 54  1  0
 32 55  1  0
M  END
>  <Energy>  (55) 
16.490928239132121

>  <compound_id>  (55) 
191

>  <target_id>  (55) 
1

>  <reference_id>  (55) 
197

>  <inspiration_ids>  (55) 
[197, 175]

>  <energy_score>  (55) 
-44.37145287128948

>  <distance_score>  (55) 
3.0858099730553814

>  <path>  (55) 
/opt/xchem-fragalysis-2/maxwin/BulkDock/SCRATCH/505737/C191-P197/C191-P197.minimised.mol

>  <scratch_subdir>  (55) 
/opt/xchem-fragalysis-2/maxwin/BulkDock/SCRATCH/505737/C191-P197

>  <fragmenstein_runtime>  (55) 
13.960662126541138

>  <fragmenstein_outcome>  (55) 
too moved

>  <fragmenstein_mode>  (55) 
expansion

>  <fragmenstein_error>  (55) 


$$$$
C191-P175
     RDKit          3D

 55 58  0  0  0  0  0  0  0  0999 V2000
   -0.5483   -7.1762   35.3289 C   0  0  0  0  0  0  0  0  0  0  0  0
   -0.2638   -7.0037   33.8682 C   0  0  0  0  0  0  0  0  0  0  0  0
   -1.0334   -7.6395   32.9218 C   0  0  0  0  0  0  0  0  0  0  0  0
   -0.6817   -7.3924   31.6251 C   0  0  0  0  0  0  0  0  0  0  0  0
   -1.3842   -7.9314   30.5998 O   0  0  0  0  0  0  0  0  0  0  0  0
    0.3167   -6.6048   31.2202 N   0  0  0  0  0  0  0  0  0  0  0  0
    0.9850   -5.9973   32.2156 C   0  0  0  0  0  0  0  0  0  0  0  0
    2.0980   -5.0685   31.8350 C   0  0  0  0  0  0  0  0  0  0  0  0
    1.6087   -3.9538   30.8982 C   0  0  0  0  0  0  0  0  0  0  0  0
    2.7469   -3.2975   30.2586 N   0  0  0  0  0  0  0  0  0  0  0  0
    3.2063   -3.9010   28.9821 C   0  0  0  0  0  0  0  0  0  0  0  0
    3.4889   -5.4399   28.6725 C   0  0  0  0  0  0  0  0  0  0  0  0
    4.9446   -5.6715   28.7195 C   0  0  0  0  0  0  0  0  0  0  0  0
    5.7778   -7.0948   28.3810 S   0  0  0  0  0  0  0  0  0  0  0  0
    7.2871   -6.3378   28.6698 C   0  0  0  0  0  0  0  0  0  0  0  0
    7.1353   -4.9933   28.9492 C   0  0  0  0  0  0  0  0  0  0  0  0
    5.7628   -4.6054   28.9425 C   0  0  0  0  0  0  0  0  0  0  0  0
    5.1259   -3.2652   29.1530 C   0  0  0  0  0  0  0  0  0  0  0  0
    3.9477   -2.8633   28.1751 N   0  0  0  0  0  0  0  0  0  0  0  0
    4.4092   -2.8888   26.8084 C   0  0  0  0  0  0  0  0  0  0  0  0
    4.3998   -3.7803   25.9954 O   0  0  0  0  0  0  0  0  0  0  0  0
    4.8881   -1.4896   26.3436 C   0  0  0  0  0  0  0  0  0  0  0  0
    3.7638   -0.1943   26.9360 S   0  0  0  0  0  0  0  0  0  0  0  0
    6.5575   -1.1699   26.8412 Cl  0  0  0  0  0  0  0  0  0  0  0  0
    0.9663   -2.9588   31.7448 N   0  0  0  0  0  0  0  0  0  0  0  0
   -0.5864   -2.4397   31.3885 S   0  0  0  0  0  0  0  0  0  0  0  0
   -1.0128   -1.5597   32.4530 O   0  0  0  0  0  0  0  0  0  0  0  0
   -1.3891   -3.5595   30.9477 O   0  0  0  0  0  0  0  0  0  0  0  0
   -0.4427   -1.3739   30.0136 C   0  0  0  0  0  0  0  0  0  0  0  0
   -1.3592   -1.2996   28.9879 C   0  0  0  0  0  0  0  0  0  0  0  0
   -0.9471   -0.0055   27.9448 S   0  0  0  0  0  0  0  0  0  0  0  0
    0.4757    0.2656   28.8599 C   0  0  0  0  0  0  0  0  0  0  0  0
    0.6608   -0.5203   29.9002 N   0  0  0  0  0  0  0  0  0  0  0  0
    0.7650   -6.1989   33.5274 N   0  0  0  0  0  0  0  0  0  0  0  0
   -1.5867   -6.9091   35.5426 H   0  0  0  0  0  0  0  0  0  0  0  0
   -0.3708   -8.2096   35.6347 H   0  0  0  0  0  0  0  0  0  0  0  0
    0.0973   -6.5281   35.9302 H   0  0  0  0  0  0  0  0  0  0  0  0
   -1.8584   -8.2878   33.1768 H   0  0  0  0  0  0  0  0  0  0  0  0
   -0.9771   -7.4496   29.8565 H   0  0  0  0  0  0  0  0  0  0  0  0
    2.8669   -5.6717   31.3606 H   0  0  0  0  0  0  0  0  0  0  0  0
    2.5570   -4.6470   32.7394 H   0  0  0  0  0  0  0  0  0  0  0  0
    0.9128   -4.3318   30.1419 H   0  0  0  0  0  0  0  0  0  0  0  0
    2.4301   -2.3578   29.9982 H   0  0  0  0  0  0  0  0  0  0  0  0
    2.2579   -3.8368   28.4189 H   0  0  0  0  0  0  0  0  0  0  0  0
    2.9328   -6.0955   29.3408 H   0  0  0  0  0  0  0  0  0  0  0  0
    3.1341   -5.6607   27.6567 H   0  0  0  0  0  0  0  0  0  0  0  0
    8.2086   -6.8981   28.5849 H   0  0  0  0  0  0  0  0  0  0  0  0
    7.9721   -4.3247   29.1167 H   0  0  0  0  0  0  0  0  0  0  0  0
    4.9507   -3.0437   30.2153 H   0  0  0  0  0  0  0  0  0  0  0  0
    5.9091   -2.5363   28.9260 H   0  0  0  0  0  0  0  0  0  0  0  0
    4.8634   -1.4681   25.2497 H   0  0  0  0  0  0  0  0  0  0  0  0
    3.8233   -0.5638   28.2225 H   0  0  0  0  0  0  0  0  0  0  0  0
    1.5657   -2.2069   32.0815 H   0  0  0  0  0  0  0  0  0  0  0  0
   -2.2420   -1.8972   28.8189 H   0  0  0  0  0  0  0  0  0  0  0  0
    1.1743    1.0461   28.5848 H   0  0  0  0  0  0  0  0  0  0  0  0
  1  2  1  0
  2  3  2  0
  3  4  1  0
  4  5  1  0
  4  6  2  0
  6  7  1  0
  7  8  1  0
  8  9  1  0
  9 10  1  0
 10 11  1  0
 11 12  1  0
 12 13  1  0
 13 14  1  0
 14 15  1  0
 15 16  2  0
 16 17  1  0
 17 18  1  0
 18 19  1  0
 19 20  1  0
 20 21  2  0
 20 22  1  0
 22 23  1  0
 22 24  1  0
  9 25  1  0
 25 26  1  0
 26 27  2  0
 26 28  2  0
 26 29  1  0
 29 30  2  0
 30 31  1  0
 31 32  1  0
 32 33  2  0
  7 34  2  0
 34  2  1  0
 19 11  1  0
 33 29  1  0
 17 13  2  0
  1 35  1  0
  1 36  1  0
  1 37  1  0
  3 38  1  0
  5 39  1  0
  8 40  1  0
  8 41  1  0
  9 42  1  0
 10 43  1  0
 11 44  1  0
 12 45  1  0
 12 46  1  0
 15 47  1  0
 16 48  1  0
 18 49  1  0
 18 50  1  0
 22 51  1  0
 23 52  1  0
 25 53  1  0
 30 54  1  0
 32 55  1  0
M  END
>  <Energy>  (56) 
-0.25611747860082024

>  <compound_id>  (56) 
191

>  <target_id>  (56) 
1

>  <reference_id>  (56) 
175

>  <inspiration_ids>  (56) 
[197, 175]

>  <energy_score>  (56) 
-61.11849858902684

>  <distance_score>  (56) 
3.3426406095597505

>  <path>  (56) 
/opt/xchem-fragalysis-2/maxwin/BulkDock/SCRATCH/505737/C191-P175/C191-P175.minimised.mol

>  <scratch_subdir>  (56) 
/opt/xchem-fragalysis-2/maxwin/BulkDock/SCRATCH/505737/C191-P175

>  <fragmenstein_runtime>  (56) 
10.850448369979858

>  <fragmenstein_outcome>  (56) 
too moved

>  <fragmenstein_mode>  (56) 
expansion

>  <fragmenstein_error>  (56) 


$$$$
C192-P197
     RDKit          3D

 51 54  0  0  0  0  0  0  0  0999 V2000
    1.5100   -5.4592   29.1528 N   0  0  0  0  0  0  0  0  0  0  0  0
    3.1411   -5.5099   28.7643 S   0  0  0  0  0  0  0  0  0  0  0  0
    3.8715   -5.0632   29.9274 O   0  0  0  0  0  0  0  0  0  0  0  0
    3.3625   -6.8037   28.1523 O   0  0  0  0  0  0  0  0  0  0  0  0
    3.1777   -4.2176   27.5506 C   0  0  0  0  0  0  0  0  0  0  0  0
    4.4030   -3.5277   27.1472 N   0  0  0  0  0  0  0  0  0  0  0  0
    4.0153   -2.4381   26.2540 C   0  0  0  0  0  0  0  0  0  0  0  0
    3.0477   -1.1338   26.9886 S   0  0  0  0  0  4  0  0  0  0  0  0
    1.1551   -2.1973   26.3721 C   0  0  0  0  0  0  0  0  0  0  0  0
    1.3358   -1.0489   27.2316 C   0  0  0  0  0  0  0  0  0  0  0  0
    0.9255   -1.0405   28.6621 C   0  0  0  0  0  0  0  0  0  0  0  0
   -0.5351   -1.4747   28.9285 C   0  0  0  0  0  0  0  0  0  0  0  0
   -0.5561   -2.2375   30.2001 C   0  0  0  0  0  0  0  0  0  0  0  0
   -1.3175   -2.1377   31.3408 C   0  0  0  0  0  0  0  0  0  0  0  0
   -0.7498   -3.0185   32.2266 N   0  0  0  0  0  0  0  0  0  0  0  0
    0.3191   -3.6090   31.5982 C   0  0  0  0  0  0  0  0  0  0  0  0
    1.2296   -4.5914   32.2421 C   0  0  0  0  0  0  0  0  0  0  0  0
    0.4832   -5.8101   32.6083 C   0  0  0  0  0  0  0  0  0  0  0  0
   -0.1419   -6.6611   31.8130 N   0  0  0  0  0  0  0  0  0  0  0  0
   -0.8022   -7.4837   32.6610 C   0  0  0  0  0  0  0  0  0  0  0  0
   -1.5273   -8.5133   32.2300 O   0  0  0  0  0  0  0  0  0  0  0  0
   -0.5753   -7.1677   33.9776 C   0  0  0  0  0  0  0  0  0  0  0  0
   -0.9361   -7.6499   35.2468 C   0  0  0  0  0  0  0  0  0  0  0  0
   -0.3376   -7.1293   36.3263 C   0  0  0  0  0  0  0  0  0  0  0  0
    0.5748   -5.9907   36.1202 C   0  0  0  0  0  0  0  0  0  0  0  0
    0.8924   -5.4755   34.9791 N   0  0  0  0  0  0  0  0  0  0  0  0
    0.3049   -6.1168   33.9293 N   0  0  0  0  0  0  0  0  0  0  0  0
    0.4101   -3.1939   30.3595 N   0  0  0  0  0  0  0  0  0  0  0  0
    0.8852   -5.6406   28.3665 H   0  0  0  0  0  0  0  0  0  0  0  0
    1.2195   -4.5730   29.5998 H   0  0  0  0  0  0  0  0  0  0  0  0
    2.5705   -3.4803   28.0730 H   0  0  0  0  0  0  0  0  0  0  0  0
    2.6642   -4.6269   26.6745 H   0  0  0  0  0  0  0  0  0  0  0  0
    4.8533   -3.1401   27.9779 H   0  0  0  0  0  0  0  0  0  0  0  0
    4.9290   -1.9442   25.9051 H   0  0  0  0  0  0  0  0  0  0  0  0
    3.5057   -2.8031   25.3582 H   0  0  0  0  0  0  0  0  0  0  0  0
    3.2058   -0.1641   26.0567 H   0  0  0  0  0  0  0  0  0  0  0  0
    1.2684   -2.1909   25.2998 H   0  0  0  0  0  0  0  0  0  0  0  0
    1.0723   -3.1591   26.8425 H   0  0  0  0  0  0  0  0  0  0  0  0
    0.8727   -0.1373   26.8864 H   0  0  0  0  0  0  0  0  0  0  0  0
    1.0581   -0.0271   29.0682 H   0  0  0  0  0  0  0  0  0  0  0  0
    1.6467   -1.6481   29.2203 H   0  0  0  0  0  0  0  0  0  0  0  0
   -1.1846   -0.5941   28.9830 H   0  0  0  0  0  0  0  0  0  0  0  0
   -0.9196   -2.1154   28.1278 H   0  0  0  0  0  0  0  0  0  0  0  0
   -2.1555   -1.5115   31.6094 H   0  0  0  0  0  0  0  0  0  0  0  0
   -1.0491   -3.1938   33.1783 H   0  0  0  0  0  0  0  0  0  0  0  0
    1.6983   -4.1032   33.1042 H   0  0  0  0  0  0  0  0  0  0  0  0
    2.0587   -4.8581   31.5907 H   0  0  0  0  0  0  0  0  0  0  0  0
   -1.2580   -8.6391   31.3072 H   0  0  0  0  0  0  0  0  0  0  0  0
   -1.6512   -8.4563   35.3360 H   0  0  0  0  0  0  0  0  0  0  0  0
   -0.4817   -7.4681   37.3390 H   0  0  0  0  0  0  0  0  0  0  0  0
    1.0015   -5.5581   37.0407 H   0  0  0  0  0  0  0  0  0  0  0  0
  1  2  1  0
  2  3  2  0
  2  4  2  0
  2  5  1  0
  5  6  1  0
  6  7  1  0
  7  8  1  0
  8  9  1  0
  9 10  1  0
 10 11  1  0
 11 12  1  0
 12 13  1  0
 13 14  2  0
 14 15  1  0
 15 16  1  0
 16 17  1  0
 17 18  1  0
 18 19  2  0
 19 20  1  0
 20 21  1  0
 20 22  2  0
 22 23  1  0
 23 24  2  0
 24 25  1  0
 25 26  2  0
 26 27  1  0
 16 28  2  0
 10  8  1  0
 28 13  1  0
 27 18  1  0
 27 22  1  0
  1 29  1  0
  1 30  1  0
  5 31  1  0
  5 32  1  0
  6 33  1  0
  7 34  1  0
  7 35  1  0
  8 36  1  0
  9 37  1  0
  9 38  1  0
 10 39  1  0
 11 40  1  0
 11 41  1  0
 12 42  1  0
 12 43  1  0
 14 44  1  0
 15 45  1  0
 17 46  1  0
 17 47  1  0
 21 48  1  0
 23 49  1  0
 24 50  1  0
 25 51  1  0
M  END
>  <Energy>  (57) 
36.677598160011648

>  <compound_id>  (57) 
192

>  <target_id>  (57) 
1

>  <reference_id>  (57) 
197

>  <inspiration_ids>  (57) 
[197, 177]

>  <energy_score>  (57) 
-72.26532596128183

>  <distance_score>  (57) 
1.7009514909137669

>  <path>  (57) 
/opt/xchem-fragalysis-2/maxwin/BulkDock/SCRATCH/505737/C192-P197/C192-P197.minimised.mol

>  <scratch_subdir>  (57) 
/opt/xchem-fragalysis-2/maxwin/BulkDock/SCRATCH/505737/C192-P197

>  <fragmenstein_runtime>  (57) 
4.150831460952759

>  <fragmenstein_outcome>  (57) 
too moved

>  <fragmenstein_mode>  (57) 
expansion

>  <fragmenstein_error>  (57) 


$$$$
C192-P177
     RDKit          3D

 51 54  0  0  0  0  0  0  0  0999 V2000
    1.3122   -3.7939   27.8111 N   0  0  0  0  0  0  0  0  0  0  0  0
    2.6710   -4.6554   28.2191 S   0  0  0  0  0  0  0  0  0  0  0  0
    3.2536   -4.0470   29.3963 O   0  0  0  0  0  0  0  0  0  0  0  0
    2.2065   -6.0171   28.2274 O   0  0  0  0  0  0  0  0  0  0  0  0
    3.8278   -4.4247   26.8559 C   0  0  0  0  0  0  0  0  0  0  0  0
    4.6582   -3.2090   26.8499 N   0  0  0  0  0  0  0  0  0  0  0  0
    3.8432   -2.0371   26.5713 C   0  0  0  0  0  0  0  0  0  0  0  0
    3.3228   -1.1540   28.0418 S   0  0  0  0  0  4  0  0  0  0  0  0
    2.5482    0.2339   27.3756 C   0  0  0  0  0  0  0  0  0  0  0  0
    1.2987   -0.5146   27.5134 C   0  0  0  0  0  0  0  0  0  0  0  0
    0.4962   -0.1856   28.7558 C   0  0  0  0  0  0  0  0  0  0  0  0
   -0.8101   -0.9743   28.9512 C   0  0  0  0  0  0  0  0  0  0  0  0
   -0.6674   -1.8900   30.1097 C   0  0  0  0  0  0  0  0  0  0  0  0
   -1.2924   -1.9281   31.3354 C   0  0  0  0  0  0  0  0  0  0  0  0
   -0.6393   -2.9049   32.0398 N   0  0  0  0  0  0  0  0  0  0  0  0
    0.3066   -3.4580   31.2099 C   0  0  0  0  0  0  0  0  0  0  0  0
    1.1871   -4.5915   31.6075 C   0  0  0  0  0  0  0  0  0  0  0  0
    0.3972   -5.7179   32.1291 C   0  0  0  0  0  0  0  0  0  0  0  0
   -0.1769   -6.6687   31.4219 N   0  0  0  0  0  0  0  0  0  0  0  0
   -0.8653   -7.3855   32.3317 C   0  0  0  0  0  0  0  0  0  0  0  0
   -1.5408   -8.4740   31.9876 O   0  0  0  0  0  0  0  0  0  0  0  0
   -0.7089   -6.9065   33.6102 C   0  0  0  0  0  0  0  0  0  0  0  0
   -1.1257   -7.2336   34.9123 C   0  0  0  0  0  0  0  0  0  0  0  0
   -0.6450   -6.5209   35.9393 C   0  0  0  0  0  0  0  0  0  0  0  0
    0.2380   -5.3812   35.6275 C   0  0  0  0  0  0  0  0  0  0  0  0
    0.6214   -5.0200   34.4464 N   0  0  0  0  0  0  0  0  0  0  0  0
    0.1391   -5.8366   33.4670 N   0  0  0  0  0  0  0  0  0  0  0  0
    0.3104   -2.8383   30.0519 N   0  0  0  0  0  0  0  0  0  0  0  0
    0.5128   -4.4253   27.7392 H   0  0  0  0  0  0  0  0  0  0  0  0
    1.1043   -3.1350   28.5841 H   0  0  0  0  0  0  0  0  0  0  0  0
    3.2711   -4.5471   25.9237 H   0  0  0  0  0  0  0  0  0  0  0  0
    4.5078   -5.2819   26.9241 H   0  0  0  0  0  0  0  0  0  0  0  0
    5.0832   -3.0990   27.7719 H   0  0  0  0  0  0  0  0  0  0  0  0
    4.4657   -1.3235   26.0205 H   0  0  0  0  0  0  0  0  0  0  0  0
    2.9692   -2.2490   25.9482 H   0  0  0  0  0  0  0  0  0  0  0  0
    2.8205   -1.9832   28.9846 H   0  0  0  0  0  0  0  0  0  0  0  0
    2.8553    0.5460   26.3742 H   0  0  0  0  0  0  0  0  0  0  0  0
    2.6289    1.1634   27.9490 H   0  0  0  0  0  0  0  0  0  0  0  0
    0.9621   -1.3321   26.9018 H   0  0  0  0  0  0  0  0  0  0  0  0
    0.2130    0.8713   28.6542 H   0  0  0  0  0  0  0  0  0  0  0  0
    1.1348   -0.2323   29.6472 H   0  0  0  0  0  0  0  0  0  0  0  0
   -1.6278   -0.2723   29.1544 H   0  0  0  0  0  0  0  0  0  0  0  0
   -1.0827   -1.5395   28.0535 H   0  0  0  0  0  0  0  0  0  0  0  0
   -2.0833   -1.3366   31.7721 H   0  0  0  0  0  0  0  0  0  0  0  0
   -0.8196   -3.1827   32.9972 H   0  0  0  0  0  0  0  0  0  0  0  0
    1.9511   -4.2470   32.3121 H   0  0  0  0  0  0  0  0  0  0  0  0
    1.7091   -4.9832   30.7437 H   0  0  0  0  0  0  0  0  0  0  0  0
   -1.1455   -8.7797   31.1504 H   0  0  0  0  0  0  0  0  0  0  0  0
   -1.8057   -8.0608   35.0696 H   0  0  0  0  0  0  0  0  0  0  0  0
   -0.8700   -6.7041   36.9771 H   0  0  0  0  0  0  0  0  0  0  0  0
    0.5770   -4.7982   36.5003 H   0  0  0  0  0  0  0  0  0  0  0  0
  1  2  1  0
  2  3  2  0
  2  4  2  0
  2  5  1  0
  5  6  1  0
  6  7  1  0
  7  8  1  0
  8  9  1  0
  9 10  1  0
 10 11  1  0
 11 12  1  0
 12 13  1  0
 13 14  2  0
 14 15  1  0
 15 16  1  0
 16 17  1  0
 17 18  1  0
 18 19  2  0
 19 20  1  0
 20 21  1  0
 20 22  2  0
 22 23  1  0
 23 24  2  0
 24 25  1  0
 25 26  2  0
 26 27  1  0
 16 28  2  0
 10  8  1  0
 28 13  1  0
 27 18  1  0
 27 22  1  0
  1 29  1  0
  1 30  1  0
  5 31  1  0
  5 32  1  0
  6 33  1  0
  7 34  1  0
  7 35  1  0
  8 36  1  0
  9 37  1  0
  9 38  1  0
 10 39  1  0
 11 40  1  0
 11 41  1  0
 12 42  1  0
 12 43  1  0
 14 44  1  0
 15 45  1  0
 17 46  1  0
 17 47  1  0
 21 48  1  0
 23 49  1  0
 24 50  1  0
 25 51  1  0
M  END
>  <Energy>  (58) 
14.792849473835215

>  <compound_id>  (58) 
192

>  <target_id>  (58) 
1

>  <reference_id>  (58) 
177

>  <inspiration_ids>  (58) 
[197, 177]

>  <energy_score>  (58) 
-94.15007464745798

>  <distance_score>  (58) 
1.9988840564116315

>  <path>  (58) 
/opt/xchem-fragalysis-2/maxwin/BulkDock/SCRATCH/505737/C192-P177/C192-P177.minimised.mol

>  <scratch_subdir>  (58) 
/opt/xchem-fragalysis-2/maxwin/BulkDock/SCRATCH/505737/C192-P177

>  <fragmenstein_runtime>  (58) 
4.079815149307251

>  <fragmenstein_outcome>  (58) 
too moved

>  <fragmenstein_mode>  (58) 
expansion

>  <fragmenstein_error>  (58) 


$$$$
C197-P197
     RDKit          3D

 33 34  0  0  0  0  0  0  0  0999 V2000
   -0.0939   -6.4832   35.3382 C   0  0  0  0  0  0  0  0  0  0  0  0
   -0.1708   -6.7460   33.8630 C   0  0  0  0  0  0  0  0  0  0  0  0
   -1.1075   -7.6250   33.3677 C   0  0  0  0  0  0  0  0  0  0  0  0
   -1.1081   -7.7988   32.0069 C   0  0  0  0  0  0  0  0  0  0  0  0
   -1.9927   -8.6354   31.3986 O   0  0  0  0  0  0  0  0  0  0  0  0
   -0.2767   -7.1780   31.1654 N   0  0  0  0  0  0  0  0  0  0  0  0
    0.5975   -6.3347   31.7328 C   0  0  0  0  0  0  0  0  0  0  0  0
    1.4457   -5.4970   30.8180 C   0  0  0  0  0  0  0  0  0  0  0  0
    0.6464   -4.2878   30.3764 C   0  0  0  0  0  0  0  0  0  0  0  0
    0.4413   -3.3327   31.4917 N   0  0  0  0  0  0  0  0  0  0  0  0
   -1.0616   -2.5491   31.5457 S   0  0  0  0  0  0  0  0  0  0  0  0
   -1.0020   -1.5817   32.6168 O   0  0  0  0  0  0  0  0  0  0  0  0
   -2.0900   -3.5697   31.4955 O   0  0  0  0  0  0  0  0  0  0  0  0
   -1.2500   -1.6473   30.0720 C   0  0  0  0  0  0  0  0  0  0  0  0
   -1.2687   -2.2574   28.8347 C   0  0  0  0  0  0  0  0  0  0  0  0
   -1.3406   -1.0903   27.6087 S   0  0  0  0  0  0  0  0  0  0  0  0
   -1.4710    0.1208   28.8098 C   0  0  0  0  0  0  0  0  0  0  0  0
   -1.7666    1.3647   28.4352 N   0  0  0  0  0  0  0  0  0  0  0  0
   -1.3835   -0.2663   30.0529 N   0  0  0  0  0  0  0  0  0  0  0  0
    0.6926   -6.0936   33.0573 N   0  0  0  0  0  0  0  0  0  0  0  0
    0.7131   -5.7794   35.5654 H   0  0  0  0  0  0  0  0  0  0  0  0
    0.1028   -7.4147   35.8785 H   0  0  0  0  0  0  0  0  0  0  0  0
   -1.0345   -6.0520   35.6946 H   0  0  0  0  0  0  0  0  0  0  0  0
   -1.7882   -8.1475   34.0226 H   0  0  0  0  0  0  0  0  0  0  0  0
   -2.6174   -8.9958   32.0564 H   0  0  0  0  0  0  0  0  0  0  0  0
    1.7216   -6.0856   29.9372 H   0  0  0  0  0  0  0  0  0  0  0  0
    2.3697   -5.2007   31.3268 H   0  0  0  0  0  0  0  0  0  0  0  0
    1.1877   -3.7621   29.5826 H   0  0  0  0  0  0  0  0  0  0  0  0
   -0.3061   -4.6360   29.9695 H   0  0  0  0  0  0  0  0  0  0  0  0
    0.6078   -3.7324   32.4226 H   0  0  0  0  0  0  0  0  0  0  0  0
   -1.2312   -3.3036   28.5801 H   0  0  0  0  0  0  0  0  0  0  0  0
   -2.3245    1.8902   29.0941 H   0  0  0  0  0  0  0  0  0  0  0  0
   -2.2151    1.3742   27.5255 H   0  0  0  0  0  0  0  0  0  0  0  0
  1  2  1  0
  2  3  2  0
  3  4  1  0
  4  5  1  0
  4  6  2  0
  6  7  1  0
  7  8  1  0
  8  9  1  0
  9 10  1  0
 10 11  1  0
 11 12  2  0
 11 13  2  0
 11 14  1  0
 14 15  2  0
 15 16  1  0
 16 17  1  0
 17 18  1  0
 17 19  2  0
  7 20  2  0
 20  2  1  0
 19 14  1  0
  1 21  1  0
  1 22  1  0
  1 23  1  0
  3 24  1  0
  5 25  1  0
  8 26  1  0
  8 27  1  0
  9 28  1  0
  9 29  1  0
 10 30  1  0
 15 31  1  0
 18 32  1  0
 18 33  1  0
M  END
>  <Energy>  (59) 
-83.043150275667344

>  <compound_id>  (59) 
197

>  <target_id>  (59) 
1

>  <reference_id>  (59) 
197

>  <inspiration_ids>  (59) 
[197, 198]

>  <energy_score>  (59) 
-131.29462766756856

>  <distance_score>  (59) 
0.5497571100923991

>  <path>  (59) 
/opt/xchem-fragalysis-2/maxwin/BulkDock/SCRATCH/505737/C197-P197/C197-P197.minimised.mol

>  <scratch_subdir>  (59) 
/opt/xchem-fragalysis-2/maxwin/BulkDock/SCRATCH/505737/C197-P197

>  <fragmenstein_runtime>  (59) 
1.6867918968200684

>  <fragmenstein_outcome>  (59) 
acceptable

>  <fragmenstein_mode>  (59) 
expansion

>  <fragmenstein_error>  (59) 


$$$$
C197-P198
     RDKit          3D

 33 34  0  0  0  0  0  0  0  0999 V2000
   -0.0348   -6.3291   35.2125 C   0  0  0  0  0  0  0  0  0  0  0  0
   -0.1527   -6.5805   33.7373 C   0  0  0  0  0  0  0  0  0  0  0  0
   -1.0800   -7.4830   33.2692 C   0  0  0  0  0  0  0  0  0  0  0  0
   -1.1145   -7.6560   31.9095 C   0  0  0  0  0  0  0  0  0  0  0  0
   -1.9904   -8.5173   31.3259 O   0  0  0  0  0  0  0  0  0  0  0  0
   -0.3333   -7.0059   31.0427 N   0  0  0  0  0  0  0  0  0  0  0  0
    0.5281   -6.1321   31.5817 C   0  0  0  0  0  0  0  0  0  0  0  0
    1.3221   -5.2733   30.6360 C   0  0  0  0  0  0  0  0  0  0  0  0
    0.5022   -4.0537   30.2317 C   0  0  0  0  0  0  0  0  0  0  0  0
    0.3728   -3.1008   31.3619 N   0  0  0  0  0  0  0  0  0  0  0  0
   -1.0843   -2.2408   31.4748 S   0  0  0  0  0  0  0  0  0  0  0  0
   -0.9675   -1.3423   32.5997 O   0  0  0  0  0  0  0  0  0  0  0  0
   -2.1609   -3.2113   31.3915 O   0  0  0  0  0  0  0  0  0  0  0  0
   -1.2598   -1.2359   30.0595 C   0  0  0  0  0  0  0  0  0  0  0  0
   -1.6307   -1.7707   28.8465 C   0  0  0  0  0  0  0  0  0  0  0  0
   -1.7053   -0.5478   27.6740 S   0  0  0  0  0  0  0  0  0  0  0  0
   -1.2095    0.5982   28.8327 C   0  0  0  0  0  0  0  0  0  0  0  0
   -1.0648    1.8745   28.4593 N   0  0  0  0  0  0  0  0  0  0  0  0
   -1.0060    0.1384   30.0438 N   0  0  0  0  0  0  0  0  0  0  0  0
    0.6620   -5.8967   32.9051 N   0  0  0  0  0  0  0  0  0  0  0  0
    0.7530   -5.5977   35.4187 H   0  0  0  0  0  0  0  0  0  0  0  0
    0.2152   -7.2577   35.7355 H   0  0  0  0  0  0  0  0  0  0  0  0
   -0.9778   -5.9366   35.6058 H   0  0  0  0  0  0  0  0  0  0  0  0
   -1.7308   -8.0188   33.9427 H   0  0  0  0  0  0  0  0  0  0  0  0
   -2.5840   -8.8965   32.0016 H   0  0  0  0  0  0  0  0  0  0  0  0
    1.5726   -5.8600   29.7453 H   0  0  0  0  0  0  0  0  0  0  0  0
    2.2651   -4.9749   31.1082 H   0  0  0  0  0  0  0  0  0  0  0  0
    1.0083   -3.5281   29.4143 H   0  0  0  0  0  0  0  0  0  0  0  0
   -0.4768   -4.3747   29.8640 H   0  0  0  0  0  0  0  0  0  0  0  0
    0.5502   -3.5169   32.2834 H   0  0  0  0  0  0  0  0  0  0  0  0
   -1.8627   -2.7940   28.6081 H   0  0  0  0  0  0  0  0  0  0  0  0
   -0.9769    2.5545   29.2057 H   0  0  0  0  0  0  0  0  0  0  0  0
   -1.6944    2.2045   27.7342 H   0  0  0  0  0  0  0  0  0  0  0  0
  1  2  1  0
  2  3  2  0
  3  4  1  0
  4  5  1  0
  4  6  2  0
  6  7  1  0
  7  8  1  0
  8  9  1  0
  9 10  1  0
 10 11  1  0
 11 12  2  0
 11 13  2  0
 11 14  1  0
 14 15  2  0
 15 16  1  0
 16 17  1  0
 17 18  1  0
 17 19  2  0
  7 20  2  0
 20  2  1  0
 19 14  1  0
  1 21  1  0
  1 22  1  0
  1 23  1  0
  3 24  1  0
  5 25  1  0
  8 26  1  0
  8 27  1  0
  9 28  1  0
  9 29  1  0
 10 30  1  0
 15 31  1  0
 18 32  1  0
 18 33  1  0
M  END
>  <Energy>  (60) 
-87.177541424939847

>  <compound_id>  (60) 
197

>  <target_id>  (60) 
1

>  <reference_id>  (60) 
198

>  <inspiration_ids>  (60) 
[197, 198]

>  <energy_score>  (60) 
-135.42901881684173

>  <distance_score>  (60) 
0.6471283766271054

>  <path>  (60) 
/opt/xchem-fragalysis-2/maxwin/BulkDock/SCRATCH/505737/C197-P198/C197-P198.minimised.mol

>  <scratch_subdir>  (60) 
/opt/xchem-fragalysis-2/maxwin/BulkDock/SCRATCH/505737/C197-P198

>  <fragmenstein_runtime>  (60) 
1.3322651386260986

>  <fragmenstein_outcome>  (60) 
acceptable

>  <fragmenstein_mode>  (60) 
expansion

>  <fragmenstein_error>  (60) 


$$$$
C203-P198
     RDKit          3D

 59 62  0  0  0  0  0  0  0  0999 V2000
    5.4271   -5.6775   26.0742 C   0  0  0  0  0  0  0  0  0  0  0  0
    4.2961   -5.0586   26.8418 C   0  0  0  0  0  0  0  0  0  0  0  0
    3.3815   -5.8673   27.5086 C   0  0  0  0  0  0  0  0  0  0  0  0
    2.3850   -5.2752   28.2561 C   0  0  0  0  0  0  0  0  0  0  0  0
    2.3334   -3.8916   28.2968 C   0  0  0  0  0  0  0  0  0  0  0  0
    3.3030   -3.1408   27.6584 C   0  0  0  0  0  0  0  0  0  0  0  0
    3.2437   -1.7618   27.6776 N   0  0  0  0  0  0  0  0  0  0  0  0
    2.6709   -0.7850   28.7576 C   0  0  0  0  0  0  0  0  0  0  0  0
    2.2358   -1.0031   29.8229 O   0  0  0  0  0  0  0  0  0  0  0  0
    2.6809    0.6226   28.0889 C   0  0  0  0  0  0  0  0  0  0  0  0
    2.5297    1.8305   29.0061 C   0  0  0  0  0  0  0  0  0  0  0  0
    1.3452    2.6029   28.4189 C   0  0  0  0  0  0  0  0  0  0  0  0
    0.4480    1.5148   27.8255 C   0  0  0  0  0  0  0  0  0  0  0  0
   -0.3739    0.6705   28.7979 C   0  0  0  0  0  0  0  0  0  0  0  0
   -0.4534    1.0310   30.1344 C   0  0  0  0  0  0  0  0  0  0  0  0
   -0.8658    0.0950   31.0612 C   0  0  0  0  0  0  0  0  0  0  0  0
   -1.2103   -1.1762   30.6262 C   0  0  0  0  0  0  0  0  0  0  0  0
   -1.5363   -2.3969   31.8342 S   0  0  0  0  0  0  0  0  0  0  0  0
   -1.9003   -1.6958   33.0454 O   0  0  0  0  0  0  0  0  0  0  0  0
   -2.3864   -3.4158   31.2682 O   0  0  0  0  0  0  0  0  0  0  0  0
   -0.0488   -3.0708   32.1326 N   0  0  0  0  0  0  0  0  0  0  0  0
    0.7057   -3.7599   31.1001 C   0  0  0  0  0  0  0  0  0  0  0  0
    1.5371   -4.9025   31.6646 C   0  0  0  0  0  0  0  0  0  0  0  0
    0.6469   -5.9888   32.1709 C   0  0  0  0  0  0  0  0  0  0  0  0
    0.3746   -5.9594   33.4876 N   0  0  0  0  0  0  0  0  0  0  0  0
   -0.5932   -6.7809   33.9211 C   0  0  0  0  0  0  0  0  0  0  0  0
   -1.2445   -7.6534   33.0949 C   0  0  0  0  0  0  0  0  0  0  0  0
   -0.8189   -7.6511   31.7980 C   0  0  0  0  0  0  0  0  0  0  0  0
   -1.3127   -8.5516   30.9131 O   0  0  0  0  0  0  0  0  0  0  0  0
    0.1207   -6.8533   31.2832 N   0  0  0  0  0  0  0  0  0  0  0  0
   -1.2545   -1.4390   29.2730 C   0  0  0  0  0  0  0  0  0  0  0  0
   -0.8254   -0.5392   28.3518 N   0  0  0  0  0  0  0  0  0  0  0  0
    1.5044    0.6888   27.1952 N   0  0  0  0  0  0  0  0  0  0  0  0
    4.2395   -3.7091   26.8893 N   0  0  0  0  0  0  0  0  0  0  0  0
    5.9639   -4.9217   25.4927 H   0  0  0  0  0  0  0  0  0  0  0  0
    6.1356   -6.1413   26.7678 H   0  0  0  0  0  0  0  0  0  0  0  0
    5.0534   -6.4421   25.3869 H   0  0  0  0  0  0  0  0  0  0  0  0
    3.4467   -6.9375   27.3973 H   0  0  0  0  0  0  0  0  0  0  0  0
    1.6392   -5.8678   28.7709 H   0  0  0  0  0  0  0  0  0  0  0  0
    1.4924   -3.3760   28.7332 H   0  0  0  0  0  0  0  0  0  0  0  0
    3.6121   -1.2285   26.8991 H   0  0  0  0  0  0  0  0  0  0  0  0
    3.5963    0.7336   27.4973 H   0  0  0  0  0  0  0  0  0  0  0  0
    2.3400    1.5439   30.0451 H   0  0  0  0  0  0  0  0  0  0  0  0
    3.4286    2.4566   28.9984 H   0  0  0  0  0  0  0  0  0  0  0  0
    0.8631    3.2579   29.1489 H   0  0  0  0  0  0  0  0  0  0  0  0
    1.7117    3.2556   27.6137 H   0  0  0  0  0  0  0  0  0  0  0  0
   -0.2259    1.9269   27.0674 H   0  0  0  0  0  0  0  0  0  0  0  0
   -0.0940    1.9863   30.4967 H   0  0  0  0  0  0  0  0  0  0  0  0
   -0.8415    0.3435   32.1189 H   0  0  0  0  0  0  0  0  0  0  0  0
    0.4076   -2.7672   32.9917 H   0  0  0  0  0  0  0  0  0  0  0  0
    1.3987   -3.0196   30.7106 H   0  0  0  0  0  0  0  0  0  0  0  0
    0.0453   -4.1151   30.3030 H   0  0  0  0  0  0  0  0  0  0  0  0
    2.2164   -5.3142   30.9182 H   0  0  0  0  0  0  0  0  0  0  0  0
    2.1694   -4.5379   32.4842 H   0  0  0  0  0  0  0  0  0  0  0  0
   -0.8421   -6.7102   34.9763 H   0  0  0  0  0  0  0  0  0  0  0  0
   -2.0144   -8.3173   33.4513 H   0  0  0  0  0  0  0  0  0  0  0  0
   -0.6209   -8.4926   30.2302 H   0  0  0  0  0  0  0  0  0  0  0  0
   -1.5830   -2.3924   28.8682 H   0  0  0  0  0  0  0  0  0  0  0  0
    1.0866   -0.2431   27.0706 H   0  0  0  0  0  0  0  0  0  0  0  0
  1  2  1  0
  2  3  2  0
  3  4  1  0
  4  5  2  0
  5  6  1  0
  6  7  1  0
  7  8  1  0
  8  9  2  0
  8 10  1  0
 10 11  1  0
 11 12  1  0
 12 13  1  0
 13 14  1  0
 14 15  2  0
 15 16  1  0
 16 17  2  0
 17 18  1  0
 18 19  2  0
 18 20  2  0
 18 21  1  0
 21 22  1  0
 22 23  1  0
 23 24  1  0
 24 25  2  0
 25 26  1  0
 26 27  2  0
 27 28  1  0
 28 29  1  0
 28 30  2  0
 17 31  1  0
 31 32  2  0
 13 33  1  0
  6 34  2  0
 34  2  1  0
 33 10  1  0
 32 14  1  0
 30 24  1  0
  1 35  1  0
  1 36  1  0
  1 37  1  0
  3 38  1  0
  4 39  1  0
  5 40  1  0
  7 41  1  0
 10 42  1  0
 11 43  1  0
 11 44  1  0
 12 45  1  0
 12 46  1  0
 13 47  1  0
 15 48  1  0
 16 49  1  0
 21 50  1  0
 22 51  1  0
 22 52  1  0
 23 53  1  0
 23 54  1  0
 26 55  1  0
 27 56  1  0
 29 57  1  0
 31 58  1  0
 33 59  1  0
M  END
>  <Energy>  (61) 
-40.659353874759084

>  <compound_id>  (61) 
203

>  <target_id>  (61) 
1

>  <reference_id>  (61) 
198

>  <inspiration_ids>  (61) 
[198, 40]

>  <energy_score>  (61) 
-39.50384418870382

>  <distance_score>  (61) 
1.9776996797184354

>  <path>  (61) 
/opt/xchem-fragalysis-2/maxwin/BulkDock/SCRATCH/505737/C203-P198/C203-P198.minimised.mol

>  <scratch_subdir>  (61) 
/opt/xchem-fragalysis-2/maxwin/BulkDock/SCRATCH/505737/C203-P198

>  <fragmenstein_runtime>  (61) 
9.293213367462158

>  <fragmenstein_outcome>  (61) 
too moved

>  <fragmenstein_mode>  (61) 
expansion

>  <fragmenstein_error>  (61) 


$$$$
C203-P40
     RDKit          3D

 59 62  0  0  0  0  0  0  0  0999 V2000
    5.0511   -4.1922   31.1183 C   0  0  0  0  0  0  0  0  0  0  0  0
    4.2506   -4.2229   29.8530 C   0  0  0  0  0  0  0  0  0  0  0  0
    4.0918   -5.3807   29.1009 C   0  0  0  0  0  0  0  0  0  0  0  0
    3.4211   -5.3013   27.8907 C   0  0  0  0  0  0  0  0  0  0  0  0
    2.9834   -4.0536   27.4598 C   0  0  0  0  0  0  0  0  0  0  0  0
    3.1093   -2.9496   28.2941 C   0  0  0  0  0  0  0  0  0  0  0  0
    2.6939   -1.6862   27.9016 N   0  0  0  0  0  0  0  0  0  0  0  0
    2.6155   -0.3455   28.7088 C   0  0  0  0  0  0  0  0  0  0  0  0
    2.8169   -0.1297   29.8432 O   0  0  0  0  0  0  0  0  0  0  0  0
    2.2889    0.7637   27.6678 C   0  0  0  0  0  0  0  0  0  0  0  0
    2.1599    2.1765   28.2351 C   0  0  0  0  0  0  0  0  0  0  0  0
    0.7790    2.6671   27.7978 C   0  0  0  0  0  0  0  0  0  0  0  0
   -0.0291    1.4050   27.5237 C   0  0  0  0  0  0  0  0  0  0  0  0
   -0.6868    0.6762   28.6766 C   0  0  0  0  0  0  0  0  0  0  0  0
   -0.3754    0.9872   29.9921 C   0  0  0  0  0  0  0  0  0  0  0  0
   -0.6469    0.0586   30.9768 C   0  0  0  0  0  0  0  0  0  0  0  0
   -1.2084   -1.1560   30.6101 C   0  0  0  0  0  0  0  0  0  0  0  0
   -1.3026   -2.4351   31.7916 S   0  0  0  0  0  0  0  0  0  0  0  0
   -1.1493   -1.8263   33.0929 O   0  0  0  0  0  0  0  0  0  0  0  0
   -2.4286   -3.2841   31.4731 O   0  0  0  0  0  0  0  0  0  0  0  0
    0.1024   -3.2660   31.4742 N   0  0  0  0  0  0  0  0  0  0  0  0
    0.2495   -4.0581   30.2558 C   0  0  0  0  0  0  0  0  0  0  0  0
    1.0436   -5.3209   30.5448 C   0  0  0  0  0  0  0  0  0  0  0  0
    0.3624   -6.1822   31.5609 C   0  0  0  0  0  0  0  0  0  0  0  0
    0.6865   -5.9673   32.8519 N   0  0  0  0  0  0  0  0  0  0  0  0
   -0.0423   -6.6181   33.7689 C   0  0  0  0  0  0  0  0  0  0  0  0
   -1.0168   -7.5195   33.4371 C   0  0  0  0  0  0  0  0  0  0  0  0
   -1.1931   -7.7272   32.0906 C   0  0  0  0  0  0  0  0  0  0  0  0
   -2.0977   -8.6355   31.6298 O   0  0  0  0  0  0  0  0  0  0  0  0
   -0.5344   -7.0794   31.1235 N   0  0  0  0  0  0  0  0  0  0  0  0
   -1.5764   -1.3764   29.3031 C   0  0  0  0  0  0  0  0  0  0  0  0
   -1.3251   -0.4789   28.3323 N   0  0  0  0  0  0  0  0  0  0  0  0
    1.0147    0.5088   26.9850 N   0  0  0  0  0  0  0  0  0  0  0  0
    3.6735   -3.0584   29.4978 N   0  0  0  0  0  0  0  0  0  0  0  0
    5.5382   -3.2182   31.2339 H   0  0  0  0  0  0  0  0  0  0  0  0
    4.3981   -4.3526   31.9809 H   0  0  0  0  0  0  0  0  0  0  0  0
    5.8376   -4.9530   31.1080 H   0  0  0  0  0  0  0  0  0  0  0  0
    4.5570   -6.3114   29.4058 H   0  0  0  0  0  0  0  0  0  0  0  0
    3.3505   -6.1678   27.2397 H   0  0  0  0  0  0  0  0  0  0  0  0
    2.6288   -3.9445   26.4535 H   0  0  0  0  0  0  0  0  0  0  0  0
    2.3763   -1.5300   26.9543 H   0  0  0  0  0  0  0  0  0  0  0  0
    3.0992    0.7448   26.9285 H   0  0  0  0  0  0  0  0  0  0  0  0
    2.2508    2.2071   29.3248 H   0  0  0  0  0  0  0  0  0  0  0  0
    2.9338    2.8385   27.8301 H   0  0  0  0  0  0  0  0  0  0  0  0
    0.3236    3.3422   28.5286 H   0  0  0  0  0  0  0  0  0  0  0  0
    0.8929    3.2341   26.8639 H   0  0  0  0  0  0  0  0  0  0  0  0
   -0.7947    1.6000   26.7645 H   0  0  0  0  0  0  0  0  0  0  0  0
    0.1590    1.8909   30.2631 H   0  0  0  0  0  0  0  0  0  0  0  0
   -0.3321    0.2533   31.9992 H   0  0  0  0  0  0  0  0  0  0  0  0
    0.9384   -2.9288   31.9547 H   0  0  0  0  0  0  0  0  0  0  0  0
    0.7593   -3.4515   29.5072 H   0  0  0  0  0  0  0  0  0  0  0  0
   -0.7227   -4.3285   29.8403 H   0  0  0  0  0  0  0  0  0  0  0  0
    1.1817   -5.8958   29.6241 H   0  0  0  0  0  0  0  0  0  0  0  0
    2.0247   -5.0633   30.9459 H   0  0  0  0  0  0  0  0  0  0  0  0
    0.1794   -6.3813   34.8054 H   0  0  0  0  0  0  0  0  0  0  0  0
   -1.5876   -8.0210   34.2039 H   0  0  0  0  0  0  0  0  0  0  0  0
   -2.6250   -8.9410   32.3900 H   0  0  0  0  0  0  0  0  0  0  0  0
   -2.0314   -2.3022   28.9669 H   0  0  0  0  0  0  0  0  0  0  0  0
    0.6587   -0.4459   27.0985 H   0  0  0  0  0  0  0  0  0  0  0  0
  1  2  1  0
  2  3  2  0
  3  4  1  0
  4  5  2  0
  5  6  1  0
  6  7  1  0
  7  8  1  0
  8  9  2  0
  8 10  1  0
 10 11  1  0
 11 12  1  0
 12 13  1  0
 13 14  1  0
 14 15  2  0
 15 16  1  0
 16 17  2  0
 17 18  1  0
 18 19  2  0
 18 20  2  0
 18 21  1  0
 21 22  1  0
 22 23  1  0
 23 24  1  0
 24 25  2  0
 25 26  1  0
 26 27  2  0
 27 28  1  0
 28 29  1  0
 28 30  2  0
 17 31  1  0
 31 32  2  0
 13 33  1  0
  6 34  2  0
 34  2  1  0
 33 10  1  0
 32 14  1  0
 30 24  1  0
  1 35  1  0
  1 36  1  0
  1 37  1  0
  3 38  1  0
  4 39  1  0
  5 40  1  0
  7 41  1  0
 10 42  1  0
 11 43  1  0
 11 44  1  0
 12 45  1  0
 12 46  1  0
 13 47  1  0
 15 48  1  0
 16 49  1  0
 21 50  1  0
 22 51  1  0
 22 52  1  0
 23 53  1  0
 23 54  1  0
 26 55  1  0
 27 56  1  0
 29 57  1  0
 31 58  1  0
 33 59  1  0
M  END
>  <Energy>  (62) 
-32.571614477162711

>  <compound_id>  (62) 
203

>  <target_id>  (62) 
1

>  <reference_id>  (62) 
40

>  <inspiration_ids>  (62) 
[198, 40]

>  <energy_score>  (62) 
-31.41610479110767

>  <distance_score>  (62) 
1.907992004657359

>  <path>  (62) 
/opt/xchem-fragalysis-2/maxwin/BulkDock/SCRATCH/505737/C203-P40/C203-P40.minimised.mol

>  <scratch_subdir>  (62) 
/opt/xchem-fragalysis-2/maxwin/BulkDock/SCRATCH/505737/C203-P40

>  <fragmenstein_runtime>  (62) 
9.739939451217651

>  <fragmenstein_outcome>  (62) 
too moved

>  <fragmenstein_mode>  (62) 
expansion

>  <fragmenstein_error>  (62) 


$$$$
C204-P198
     RDKit          3D

 50 52  0  0  0  0  0  0  0  0999 V2000
    3.5981   -4.5449   34.3992 C   0  0  0  0  0  0  0  0  0  0  0  0
    2.6688   -4.1372   35.5084 C   0  0  0  0  0  0  0  0  0  0  0  0
    3.1342   -3.3056   36.5287 C   0  0  0  0  0  0  0  0  0  0  0  0
    2.2921   -2.9884   37.5931 C   0  0  0  0  0  0  0  0  0  0  0  0
    0.9967   -3.5057   37.6427 C   0  0  0  0  0  0  0  0  0  0  0  0
    0.2112   -3.1896   38.6811 F   0  0  0  0  0  0  0  0  0  0  0  0
    0.5076   -4.3178   36.6405 C   0  0  0  0  0  0  0  0  0  0  0  0
    1.3382   -4.6043   35.5709 C   0  0  0  0  0  0  0  0  0  0  0  0
    0.8418   -5.2874   34.4866 N   0  0  0  0  0  0  0  0  0  0  0  0
   -0.4217   -6.1582   34.3446 C   0  0  0  0  0  0  0  0  0  0  0  0
   -1.1996   -6.4968   35.1433 O   0  0  0  0  0  0  0  0  0  0  0  0
   -0.4472   -6.5658   32.9139 C   0  0  0  0  0  0  0  0  0  0  0  0
   -1.1287   -7.6608   32.5023 C   0  0  0  0  0  0  0  0  0  0  0  0
   -0.8253   -7.9954   31.2194 C   0  0  0  0  0  0  0  0  0  0  0  0
   -1.2424   -9.1971   30.7556 O   0  0  0  0  0  0  0  0  0  0  0  0
   -0.0498   -7.3123   30.3599 N   0  0  0  0  0  0  0  0  0  0  0  0
    0.4925   -6.1939   30.8506 C   0  0  0  0  0  0  0  0  0  0  0  0
    1.3091   -5.2925   29.9689 C   0  0  0  0  0  0  0  0  0  0  0  0
    0.5637   -3.9968   29.6408 C   0  0  0  0  0  0  0  0  0  0  0  0
    0.5109   -3.1144   30.8114 N   0  0  0  0  0  0  0  0  0  0  0  0
   -0.8992   -2.3308   31.2498 S   0  0  0  0  0  0  0  0  0  0  0  0
   -0.5925   -1.5973   32.4574 O   0  0  0  0  0  0  0  0  0  0  0  0
   -1.9856   -3.2864   31.1983 O   0  0  0  0  0  0  0  0  0  0  0  0
   -1.0988   -1.1571   29.9606 C   0  0  0  0  0  0  0  0  0  0  0  0
   -0.6507    0.1548   30.0894 C   0  0  0  0  0  0  0  0  0  0  0  0
   -0.8815    1.0506   29.0442 C   0  0  0  0  0  0  0  0  0  0  0  0
   -1.5682    0.6096   27.9255 C   0  0  0  0  0  0  0  0  0  0  0  0
   -1.8685    1.4635   26.8707 N   0  0  0  0  0  0  0  0  0  0  0  0
   -1.9920   -0.6541   27.7965 N   0  0  0  0  0  0  0  0  0  0  0  0
   -1.7602   -1.5159   28.8097 C   0  0  0  0  0  0  0  0  0  0  0  0
    0.3970   -5.8430   32.1276 N   0  0  0  0  0  0  0  0  0  0  0  0
    3.6162   -5.6345   34.2918 H   0  0  0  0  0  0  0  0  0  0  0  0
    4.6257   -4.2238   34.6012 H   0  0  0  0  0  0  0  0  0  0  0  0
    3.2866   -4.0878   33.4544 H   0  0  0  0  0  0  0  0  0  0  0  0
    4.1480   -2.9140   36.5171 H   0  0  0  0  0  0  0  0  0  0  0  0
    2.6367   -2.3478   38.3994 H   0  0  0  0  0  0  0  0  0  0  0  0
   -0.5181   -4.6644   36.6956 H   0  0  0  0  0  0  0  0  0  0  0  0
    1.3355   -5.2594   33.5999 H   0  0  0  0  0  0  0  0  0  0  0  0
   -1.7430   -8.2629   33.1514 H   0  0  0  0  0  0  0  0  0  0  0  0
   -0.5101   -9.4727   30.1667 H   0  0  0  0  0  0  0  0  0  0  0  0
    2.2583   -5.0702   30.4721 H   0  0  0  0  0  0  0  0  0  0  0  0
    1.5638   -5.8216   29.0462 H   0  0  0  0  0  0  0  0  0  0  0  0
    1.1024   -3.4640   28.8494 H   0  0  0  0  0  0  0  0  0  0  0  0
   -0.4385   -4.2247   29.2659 H   0  0  0  0  0  0  0  0  0  0  0  0
    1.3594   -2.7631   31.2505 H   0  0  0  0  0  0  0  0  0  0  0  0
   -0.1311    0.4878   30.9836 H   0  0  0  0  0  0  0  0  0  0  0  0
   -0.5420    2.0796   29.1057 H   0  0  0  0  0  0  0  0  0  0  0  0
   -2.4284    0.8961   26.2329 H   0  0  0  0  0  0  0  0  0  0  0  0
   -2.3992    2.2693   27.1940 H   0  0  0  0  0  0  0  0  0  0  0  0
   -2.1494   -2.5138   28.6505 H   0  0  0  0  0  0  0  0  0  0  0  0
  1  2  1  0
  2  3  2  0
  3  4  1  0
  4  5  2  0
  5  6  1  0
  5  7  1  0
  7  8  2  0
  8  9  1  0
  9 10  1  0
 10 11  2  0
 10 12  1  0
 12 13  2  0
 13 14  1  0
 14 15  1  0
 14 16  2  0
 16 17  1  0
 17 18  1  0
 18 19  1  0
 19 20  1  0
 20 21  1  0
 21 22  2  0
 21 23  2  0
 21 24  1  0
 24 25  2  0
 25 26  1  0
 26 27  2  0
 27 28  1  0
 27 29  1  0
 29 30  2  0
 17 31  2  0
  8  2  1  0
 31 12  1  0
 30 24  1  0
  1 32  1  0
  1 33  1  0
  1 34  1  0
  3 35  1  0
  4 36  1  0
  7 37  1  0
  9 38  1  0
 13 39  1  0
 15 40  1  0
 18 41  1  0
 18 42  1  0
 19 43  1  0
 19 44  1  0
 20 45  1  0
 25 46  1  0
 26 47  1  0
 28 48  1  0
 28 49  1  0
 30 50  1  0
M  END
>  <Energy>  (63) 
-114.16650278854543

>  <compound_id>  (63) 
204

>  <target_id>  (63) 
1

>  <reference_id>  (63) 
198

>  <inspiration_ids>  (63) 
[198, 41]

>  <energy_score>  (63) 
-58.23557042097261

>  <distance_score>  (63) 
1.3775832773152776

>  <path>  (63) 
/opt/xchem-fragalysis-2/maxwin/BulkDock/SCRATCH/505737/C204-P198/C204-P198.minimised.mol

>  <scratch_subdir>  (63) 
/opt/xchem-fragalysis-2/maxwin/BulkDock/SCRATCH/505737/C204-P198

>  <fragmenstein_runtime>  (63) 
4.150136709213257

>  <fragmenstein_outcome>  (63) 
too moved

>  <fragmenstein_mode>  (63) 
expansion

>  <fragmenstein_error>  (63) 


$$$$
C204-P41
     RDKit          3D

 50 52  0  0  0  0  0  0  0  0999 V2000
    3.9085   -4.4612   34.4556 C   0  0  0  0  0  0  0  0  0  0  0  0
    3.0359   -3.9624   35.5732 C   0  0  0  0  0  0  0  0  0  0  0  0
    3.5110   -2.9884   36.4518 C   0  0  0  0  0  0  0  0  0  0  0  0
    2.7098   -2.5702   37.5142 C   0  0  0  0  0  0  0  0  0  0  0  0
    1.4448   -3.1263   37.7033 C   0  0  0  0  0  0  0  0  0  0  0  0
    0.6983   -2.7086   38.7344 F   0  0  0  0  0  0  0  0  0  0  0  0
    0.9494   -4.0841   36.8463 C   0  0  0  0  0  0  0  0  0  0  0  0
    1.7401   -4.4730   35.7776 C   0  0  0  0  0  0  0  0  0  0  0  0
    1.2148   -5.2956   34.8132 N   0  0  0  0  0  0  0  0  0  0  0  0
   -0.0722   -6.1309   34.8081 C   0  0  0  0  0  0  0  0  0  0  0  0
   -0.8548   -6.3167   35.6489 O   0  0  0  0  0  0  0  0  0  0  0  0
   -0.2194   -6.6223   33.4200 C   0  0  0  0  0  0  0  0  0  0  0  0
   -1.1629   -7.5429   33.1171 C   0  0  0  0  0  0  0  0  0  0  0  0
   -1.2236   -7.8006   31.7855 C   0  0  0  0  0  0  0  0  0  0  0  0
   -2.1070   -8.7278   31.3407 O   0  0  0  0  0  0  0  0  0  0  0  0
   -0.4881   -7.2035   30.8230 N   0  0  0  0  0  0  0  0  0  0  0  0
    0.4066   -6.3015   31.2429 C   0  0  0  0  0  0  0  0  0  0  0  0
    1.2233   -5.5047   30.2630 C   0  0  0  0  0  0  0  0  0  0  0  0
    0.5290   -4.2066   29.8453 C   0  0  0  0  0  0  0  0  0  0  0  0
    0.5187   -3.2425   30.9513 N   0  0  0  0  0  0  0  0  0  0  0  0
   -0.8483   -2.3525   31.3171 S   0  0  0  0  0  0  0  0  0  0  0  0
   -0.5178   -1.5778   32.4923 O   0  0  0  0  0  0  0  0  0  0  0  0
   -1.9823   -3.2527   31.3017 O   0  0  0  0  0  0  0  0  0  0  0  0
   -0.9712   -1.2324   29.9704 C   0  0  0  0  0  0  0  0  0  0  0  0
   -0.4929    0.0714   30.0504 C   0  0  0  0  0  0  0  0  0  0  0  0
   -0.7047    0.9333   28.9713 C   0  0  0  0  0  0  0  0  0  0  0  0
   -1.4160    0.4759   27.8735 C   0  0  0  0  0  0  0  0  0  0  0  0
   -1.7078    1.3075   26.7980 N   0  0  0  0  0  0  0  0  0  0  0  0
   -1.8650   -0.7815   27.7879 N   0  0  0  0  0  0  0  0  0  0  0  0
   -1.6319   -1.6138   28.8273 C   0  0  0  0  0  0  0  0  0  0  0  0
    0.6199   -6.0325   32.5274 N   0  0  0  0  0  0  0  0  0  0  0  0
    3.9544   -5.5553   34.4571 H   0  0  0  0  0  0  0  0  0  0  0  0
    4.9361   -4.0969   34.5626 H   0  0  0  0  0  0  0  0  0  0  0  0
    3.5293   -4.1103   33.4904 H   0  0  0  0  0  0  0  0  0  0  0  0
    4.5011   -2.5567   36.3299 H   0  0  0  0  0  0  0  0  0  0  0  0
    3.0643   -1.8146   38.2093 H   0  0  0  0  0  0  0  0  0  0  0  0
   -0.0534   -4.4616   37.0078 H   0  0  0  0  0  0  0  0  0  0  0  0
    1.6170   -5.2868   33.8796 H   0  0  0  0  0  0  0  0  0  0  0  0
   -1.7854   -8.0049   33.8661 H   0  0  0  0  0  0  0  0  0  0  0  0
   -2.7257   -8.9758   32.0577 H   0  0  0  0  0  0  0  0  0  0  0  0
    2.1965   -5.2757   30.7168 H   0  0  0  0  0  0  0  0  0  0  0  0
    1.4413   -6.1228   29.3906 H   0  0  0  0  0  0  0  0  0  0  0  0
    1.0838   -3.7540   29.0160 H   0  0  0  0  0  0  0  0  0  0  0  0
   -0.4832   -4.4173   29.4916 H   0  0  0  0  0  0  0  0  0  0  0  0
    1.3839   -2.9045   31.3681 H   0  0  0  0  0  0  0  0  0  0  0  0
    0.0300    0.4275   30.9336 H   0  0  0  0  0  0  0  0  0  0  0  0
   -0.3395    1.9553   28.9955 H   0  0  0  0  0  0  0  0  0  0  0  0
   -2.2748    0.7348   26.1713 H   0  0  0  0  0  0  0  0  0  0  0  0
   -2.2329    2.1242   27.1026 H   0  0  0  0  0  0  0  0  0  0  0  0
   -2.0314   -2.6114   28.7060 H   0  0  0  0  0  0  0  0  0  0  0  0
  1  2  1  0
  2  3  2  0
  3  4  1  0
  4  5  2  0
  5  6  1  0
  5  7  1  0
  7  8  2  0
  8  9  1  0
  9 10  1  0
 10 11  2  0
 10 12  1  0
 12 13  2  0
 13 14  1  0
 14 15  1  0
 14 16  2  0
 16 17  1  0
 17 18  1  0
 18 19  1  0
 19 20  1  0
 20 21  1  0
 21 22  2  0
 21 23  2  0
 21 24  1  0
 24 25  2  0
 25 26  1  0
 26 27  2  0
 27 28  1  0
 27 29  1  0
 29 30  2  0
 17 31  2  0
  8  2  1  0
 31 12  1  0
 30 24  1  0
  1 32  1  0
  1 33  1  0
  1 34  1  0
  3 35  1  0
  4 36  1  0
  7 37  1  0
  9 38  1  0
 13 39  1  0
 15 40  1  0
 18 41  1  0
 18 42  1  0
 19 43  1  0
 19 44  1  0
 20 45  1  0
 25 46  1  0
 26 47  1  0
 28 48  1  0
 28 49  1  0
 30 50  1  0
M  END
>  <Energy>  (64) 
-109.87022770358091

>  <compound_id>  (64) 
204

>  <target_id>  (64) 
1

>  <reference_id>  (64) 
41

>  <inspiration_ids>  (64) 
[198, 41]

>  <energy_score>  (64) 
-53.93929533600718

>  <distance_score>  (64) 
1.327392258862982

>  <path>  (64) 
/opt/xchem-fragalysis-2/maxwin/BulkDock/SCRATCH/505737/C204-P41/C204-P41.minimised.mol

>  <scratch_subdir>  (64) 
/opt/xchem-fragalysis-2/maxwin/BulkDock/SCRATCH/505737/C204-P41

>  <fragmenstein_runtime>  (64) 
4.040929317474365

>  <fragmenstein_outcome>  (64) 
too moved

>  <fragmenstein_mode>  (64) 
expansion

>  <fragmenstein_error>  (64) 


$$$$
C205-P198
     RDKit          3D

 60 62  0  0  0  0  0  0  0  0999 V2000
    3.3508    8.3996   22.6226 C   0  0  0  0  0  0  0  0  0  0  0  0
    3.0648    7.6038   23.8844 C   0  0  0  0  0  0  0  0  0  0  0  0
    1.7196    6.8844   23.8207 C   0  0  0  0  0  0  0  0  0  0  0  0
    0.9887    6.9381   22.9106 O   0  0  0  0  0  0  0  0  0  0  0  0
    1.5979    6.1138   25.1665 N   0  0  0  0  0  0  0  0  0  0  0  0
    0.5433    5.3542   25.6868 C   0  0  0  0  0  0  0  0  0  0  0  0
    0.7025    4.8934   27.0029 C   0  0  0  0  0  0  0  0  0  0  0  0
   -0.2972    4.1523   27.6190 C   0  0  0  0  0  0  0  0  0  0  0  0
   -1.4434    3.8147   26.9039 C   0  0  0  0  0  0  0  0  0  0  0  0
   -2.5385    2.9907   27.4839 C   0  0  0  0  0  0  0  0  0  0  0  0
   -2.7728    1.6985   26.7150 C   0  0  0  0  0  0  0  0  0  0  0  0
   -1.6359    0.7770   26.7478 N   0  0  0  0  0  0  0  0  0  0  0  0
   -1.4842    0.1109   27.9548 C   0  0  0  0  0  0  0  0  0  0  0  0
   -0.8609    0.6717   29.0606 C   0  0  0  0  0  0  0  0  0  0  0  0
   -0.7377   -0.0752   30.2251 C   0  0  0  0  0  0  0  0  0  0  0  0
   -1.2172   -1.3748   30.2136 C   0  0  0  0  0  0  0  0  0  0  0  0
   -1.0251   -2.4450   31.5783 S   0  0  0  0  0  0  0  0  0  0  0  0
   -0.8845   -1.6220   32.7585 O   0  0  0  0  0  0  0  0  0  0  0  0
   -2.0182   -3.4943   31.4874 O   0  0  0  0  0  0  0  0  0  0  0  0
    0.4796   -3.0786   31.2510 N   0  0  0  0  0  0  0  0  0  0  0  0
    0.7052   -3.9789   30.1186 C   0  0  0  0  0  0  0  0  0  0  0  0
    1.5104   -5.1962   30.5487 C   0  0  0  0  0  0  0  0  0  0  0  0
    0.6853   -6.0731   31.4424 C   0  0  0  0  0  0  0  0  0  0  0  0
    0.5977   -5.7306   32.7426 N   0  0  0  0  0  0  0  0  0  0  0  0
   -0.2852   -6.4220   33.4889 C   0  0  0  0  0  0  0  0  0  0  0  0
   -1.0228   -7.4653   32.9969 C   0  0  0  0  0  0  0  0  0  0  0  0
   -0.7865   -7.7614   31.6839 C   0  0  0  0  0  0  0  0  0  0  0  0
   -1.3515   -8.8498   31.1097 O   0  0  0  0  0  0  0  0  0  0  0  0
    0.0463   -7.1060   30.8728 N   0  0  0  0  0  0  0  0  0  0  0  0
   -1.8172   -1.8623   29.0779 C   0  0  0  0  0  0  0  0  0  0  0  0
   -1.9646   -1.1362   27.9604 N   0  0  0  0  0  0  0  0  0  0  0  0
   -1.6132    4.2659   25.6045 C   0  0  0  0  0  0  0  0  0  0  0  0
   -0.6376    5.0361   25.0077 C   0  0  0  0  0  0  0  0  0  0  0  0
   -0.9901    5.4294   23.7572 O   0  0  0  0  0  0  0  0  0  0  0  0
    3.3724    7.7474   21.7432 H   0  0  0  0  0  0  0  0  0  0  0  0
    2.5822    9.1615   22.4559 H   0  0  0  0  0  0  0  0  0  0  0  0
    4.3198    8.9021   22.7002 H   0  0  0  0  0  0  0  0  0  0  0  0
    3.0587    8.2814   24.7453 H   0  0  0  0  0  0  0  0  0  0  0  0
    3.8543    6.8580   24.0293 H   0  0  0  0  0  0  0  0  0  0  0  0
    2.3770    6.3550   25.7664 H   0  0  0  0  0  0  0  0  0  0  0  0
    1.5947    5.1349   27.5733 H   0  0  0  0  0  0  0  0  0  0  0  0
   -0.1787    3.8545   28.6556 H   0  0  0  0  0  0  0  0  0  0  0  0
   -2.3461    2.8055   28.5405 H   0  0  0  0  0  0  0  0  0  0  0  0
   -3.4459    3.5930   27.4156 H   0  0  0  0  0  0  0  0  0  0  0  0
   -3.6827    1.2221   27.0711 H   0  0  0  0  0  0  0  0  0  0  0  0
   -2.9722    1.9247   25.6636 H   0  0  0  0  0  0  0  0  0  0  0  0
   -1.8831   -0.0249   26.1434 H   0  0  0  0  0  0  0  0  0  0  0  0
   -0.4340    1.6621   29.0058 H   0  0  0  0  0  0  0  0  0  0  0  0
   -0.2391    0.3374   31.0964 H   0  0  0  0  0  0  0  0  0  0  0  0
    1.1970   -2.9175   31.9561 H   0  0  0  0  0  0  0  0  0  0  0  0
   -0.2366   -4.2893   29.6554 H   0  0  0  0  0  0  0  0  0  0  0  0
    1.2733   -3.4241   29.3634 H   0  0  0  0  0  0  0  0  0  0  0  0
    1.8175   -5.7629   29.6624 H   0  0  0  0  0  0  0  0  0  0  0  0
    2.4242   -4.8962   31.0748 H   0  0  0  0  0  0  0  0  0  0  0  0
   -0.3845   -6.1010   34.5221 H   0  0  0  0  0  0  0  0  0  0  0  0
   -1.7056   -8.0346   33.6086 H   0  0  0  0  0  0  0  0  0  0  0  0
   -0.6879   -9.0558   30.4218 H   0  0  0  0  0  0  0  0  0  0  0  0
   -2.1945   -2.8737   29.0118 H   0  0  0  0  0  0  0  0  0  0  0  0
   -2.5271    4.0606   25.0506 H   0  0  0  0  0  0  0  0  0  0  0  0
   -0.3035    6.0174   23.3864 H   0  0  0  0  0  0  0  0  0  0  0  0
  1  2  1  0
  2  3  1  0
  3  4  2  0
  3  5  1  0
  5  6  1  0
  6  7  2  0
  7  8  1  0
  8  9  2  0
  9 10  1  0
 10 11  1  0
 11 12  1  0
 12 13  1  0
 13 14  2  0
 14 15  1  0
 15 16  2  0
 16 17  1  0
 17 18  2  0
 17 19  2  0
 17 20  1  0
 20 21  1  0
 21 22  1  0
 22 23  1  0
 23 24  2  0
 24 25  1  0
 25 26  2  0
 26 27  1  0
 27 28  1  0
 27 29  2  0
 16 30  1  0
 30 31  2  0
  9 32  1  0
 32 33  2  0
 33 34  1  0
 33  6  1  0
 31 13  1  0
 29 23  1  0
  1 35  1  0
  1 36  1  0
  1 37  1  0
  2 38  1  0
  2 39  1  0
  5 40  1  0
  7 41  1  0
  8 42  1  0
 10 43  1  0
 10 44  1  0
 11 45  1  0
 11 46  1  0
 12 47  1  0
 14 48  1  0
 15 49  1  0
 20 50  1  0
 21 51  1  0
 21 52  1  0
 22 53  1  0
 22 54  1  0
 25 55  1  0
 26 56  1  0
 28 57  1  0
 30 58  1  0
 32 59  1  0
 34 60  1  0
M  END
>  <Energy>  (65) 
-108.16523996166083

>  <compound_id>  (65) 
205

>  <target_id>  (65) 
1

>  <reference_id>  (65) 
198

>  <inspiration_ids>  (65) 
[198, 44]

>  <energy_score>  (65) 
-107.30095382481989

>  <distance_score>  (65) 
1.89146301111523

>  <path>  (65) 
/opt/xchem-fragalysis-2/maxwin/BulkDock/SCRATCH/505737/C205-P198/C205-P198.minimised.mol

>  <scratch_subdir>  (65) 
/opt/xchem-fragalysis-2/maxwin/BulkDock/SCRATCH/505737/C205-P198

>  <fragmenstein_runtime>  (65) 
10.633655309677124

>  <fragmenstein_outcome>  (65) 
too moved

>  <fragmenstein_mode>  (65) 
expansion

>  <fragmenstein_error>  (65) 


$$$$
C205-P44
     RDKit          3D

 60 62  0  0  0  0  0  0  0  0999 V2000
    2.2156    7.3983   30.6446 C   0  0  0  0  0  0  0  0  0  0  0  0
    2.4460    7.9097   29.2345 C   0  0  0  0  0  0  0  0  0  0  0  0
    1.2546    7.6115   28.3340 C   0  0  0  0  0  0  0  0  0  0  0  0
    0.4651    8.4215   28.0393 O   0  0  0  0  0  0  0  0  0  0  0  0
    1.3441    6.1073   27.9530 N   0  0  0  0  0  0  0  0  0  0  0  0
    0.4580    5.2980   27.2336 C   0  0  0  0  0  0  0  0  0  0  0  0
    0.7772    3.9388   27.1604 C   0  0  0  0  0  0  0  0  0  0  0  0
   -0.0589    3.0553   26.4801 C   0  0  0  0  0  0  0  0  0  0  0  0
   -1.2555    3.5046   25.9155 C   0  0  0  0  0  0  0  0  0  0  0  0
   -2.3236    2.6053   25.3772 C   0  0  0  0  0  0  0  0  0  0  0  0
   -2.7940    1.6372   26.4556 C   0  0  0  0  0  0  0  0  0  0  0  0
   -1.8261    0.5578   26.5750 N   0  0  0  0  0  0  0  0  0  0  0  0
   -1.6527   -0.0009   27.8220 C   0  0  0  0  0  0  0  0  0  0  0  0
   -1.1887    0.6927   28.9321 C   0  0  0  0  0  0  0  0  0  0  0  0
   -0.9544    0.0022   30.1238 C   0  0  0  0  0  0  0  0  0  0  0  0
   -1.1935   -1.3626   30.1451 C   0  0  0  0  0  0  0  0  0  0  0  0
   -0.9277   -2.3764   31.5447 S   0  0  0  0  0  0  0  0  0  0  0  0
   -0.7450   -1.5026   32.6825 O   0  0  0  0  0  0  0  0  0  0  0  0
   -1.9184   -3.4327   31.5424 O   0  0  0  0  0  0  0  0  0  0  0  0
    0.5688   -3.0308   31.2047 N   0  0  0  0  0  0  0  0  0  0  0  0
    0.7634   -4.0211   30.1399 C   0  0  0  0  0  0  0  0  0  0  0  0
    1.5646   -5.2200   30.6341 C   0  0  0  0  0  0  0  0  0  0  0  0
    0.7187   -6.0865   31.5197 C   0  0  0  0  0  0  0  0  0  0  0  0
    0.5753   -5.7091   32.8048 N   0  0  0  0  0  0  0  0  0  0  0  0
   -0.3141   -6.4029   33.5414 C   0  0  0  0  0  0  0  0  0  0  0  0
   -1.0168   -7.4730   33.0544 C   0  0  0  0  0  0  0  0  0  0  0  0
   -0.7380   -7.7935   31.7559 C   0  0  0  0  0  0  0  0  0  0  0  0
   -1.2831   -8.8953   31.1829 O   0  0  0  0  0  0  0  0  0  0  0  0
    0.1111   -7.1434   30.9561 N   0  0  0  0  0  0  0  0  0  0  0  0
   -1.6694   -1.9655   29.0098 C   0  0  0  0  0  0  0  0  0  0  0  0
   -1.8961   -1.3108   27.8612 N   0  0  0  0  0  0  0  0  0  0  0  0
   -1.5342    4.8524   25.9264 C   0  0  0  0  0  0  0  0  0  0  0  0
   -0.7015    5.7351   26.5892 C   0  0  0  0  0  0  0  0  0  0  0  0
   -1.1616    7.0108   26.5330 O   0  0  0  0  0  0  0  0  0  0  0  0
    3.0535    7.6762   31.2913 H   0  0  0  0  0  0  0  0  0  0  0  0
    1.2992    7.8223   31.0685 H   0  0  0  0  0  0  0  0  0  0  0  0
    2.1170    6.3084   30.6672 H   0  0  0  0  0  0  0  0  0  0  0  0
    3.3538    7.4727   28.8041 H   0  0  0  0  0  0  0  0  0  0  0  0
    2.5948    8.9955   29.2506 H   0  0  0  0  0  0  0  0  0  0  0  0
    2.1139    5.6780   28.4495 H   0  0  0  0  0  0  0  0  0  0  0  0
    1.6768    3.5483   27.6265 H   0  0  0  0  0  0  0  0  0  0  0  0
    0.2066    2.0026   26.4516 H   0  0  0  0  0  0  0  0  0  0  0  0
   -3.1923    3.1950   25.0564 H   0  0  0  0  0  0  0  0  0  0  0  0
   -1.9447    2.1214   24.4798 H   0  0  0  0  0  0  0  0  0  0  0  0
   -2.9557    2.1685   27.4008 H   0  0  0  0  0  0  0  0  0  0  0  0
   -3.7582    1.2318   26.1484 H   0  0  0  0  0  0  0  0  0  0  0  0
   -2.0645   -0.2537   25.9861 H   0  0  0  0  0  0  0  0  0  0  0  0
   -0.9763    1.7530   28.8592 H   0  0  0  0  0  0  0  0  0  0  0  0
   -0.5736    0.5217   30.9971 H   0  0  0  0  0  0  0  0  0  0  0  0
    1.3057   -2.8268   31.8776 H   0  0  0  0  0  0  0  0  0  0  0  0
   -0.1886   -4.3534   29.7173 H   0  0  0  0  0  0  0  0  0  0  0  0
    1.3237   -3.5274   29.3377 H   0  0  0  0  0  0  0  0  0  0  0  0
    1.9068   -5.8111   29.7767 H   0  0  0  0  0  0  0  0  0  0  0  0
    2.4584   -4.8990   31.1817 H   0  0  0  0  0  0  0  0  0  0  0  0
   -0.4509   -6.0584   34.5628 H   0  0  0  0  0  0  0  0  0  0  0  0
   -1.7110   -8.0357   33.6590 H   0  0  0  0  0  0  0  0  0  0  0  0
   -0.6000   -9.0812   30.5061 H   0  0  0  0  0  0  0  0  0  0  0  0
   -1.8806   -3.0247   28.9791 H   0  0  0  0  0  0  0  0  0  0  0  0
   -2.4309    5.2419   25.4494 H   0  0  0  0  0  0  0  0  0  0  0  0
   -0.6068    7.5896   27.0904 H   0  0  0  0  0  0  0  0  0  0  0  0
  1  2  1  0
  2  3  1  0
  3  4  2  0
  3  5  1  0
  5  6  1  0
  6  7  2  0
  7  8  1  0
  8  9  2  0
  9 10  1  0
 10 11  1  0
 11 12  1  0
 12 13  1  0
 13 14  2  0
 14 15  1  0
 15 16  2  0
 16 17  1  0
 17 18  2  0
 17 19  2  0
 17 20  1  0
 20 21  1  0
 21 22  1  0
 22 23  1  0
 23 24  2  0
 24 25  1  0
 25 26  2  0
 26 27  1  0
 27 28  1  0
 27 29  2  0
 16 30  1  0
 30 31  2  0
  9 32  1  0
 32 33  2  0
 33 34  1  0
 33  6  1  0
 31 13  1  0
 29 23  1  0
  1 35  1  0
  1 36  1  0
  1 37  1  0
  2 38  1  0
  2 39  1  0
  5 40  1  0
  7 41  1  0
  8 42  1  0
 10 43  1  0
 10 44  1  0
 11 45  1  0
 11 46  1  0
 12 47  1  0
 14 48  1  0
 15 49  1  0
 20 50  1  0
 21 51  1  0
 21 52  1  0
 22 53  1  0
 22 54  1  0
 25 55  1  0
 26 56  1  0
 28 57  1  0
 30 58  1  0
 32 59  1  0
 34 60  1  0
M  END
>  <Energy>  (66) 
-109.43541471900113

>  <compound_id>  (66) 
205

>  <target_id>  (66) 
1

>  <reference_id>  (66) 
44

>  <inspiration_ids>  (66) 
[198, 44]

>  <energy_score>  (66) 
-108.57112858215993

>  <distance_score>  (66) 
1.7182509812194873

>  <path>  (66) 
/opt/xchem-fragalysis-2/maxwin/BulkDock/SCRATCH/505737/C205-P44/C205-P44.minimised.mol

>  <scratch_subdir>  (66) 
/opt/xchem-fragalysis-2/maxwin/BulkDock/SCRATCH/505737/C205-P44

>  <fragmenstein_runtime>  (66) 
7.640481948852539

>  <fragmenstein_outcome>  (66) 
too moved

>  <fragmenstein_mode>  (66) 
expansion

>  <fragmenstein_error>  (66) 


$$$$
C212-P198
     RDKit          3D

 61 64  0  0  0  0  0  0  0  0999 V2000
   -2.7887  -12.5236   26.5911 C   0  0  0  0  0  0  0  0  0  0  0  0
   -2.2390  -11.5441   27.4433 N   0  0  0  0  0  0  0  0  0  0  0  0
   -2.2231  -11.4461   28.8441 C   0  0  0  0  0  0  0  0  0  0  0  0
   -2.7093  -12.1348   29.6494 O   0  0  0  0  0  0  0  0  0  0  0  0
   -1.1024  -10.0048   29.5730 C   0  0  0  0  0  0  0  0  0  0  0  0
   -1.0476   -8.3823   30.2535 C   0  0  0  0  0  0  0  0  0  0  0  0
    0.2648   -7.5931   30.1331 C   0  0  0  0  0  0  0  0  0  0  0  0
    0.8332   -7.0784   31.4496 C   0  0  0  0  0  0  0  0  0  0  0  0
    0.0110   -6.2471   32.3951 C   0  0  0  0  0  0  0  0  0  0  0  0
   -1.4042   -6.8259   32.2892 C   0  0  0  0  0  0  0  0  0  0  0  0
   -1.5617   -8.2499   31.7072 C   0  0  0  0  0  0  0  0  0  0  0  0
    0.6117   -6.5599   33.8598 C   0  0  0  0  0  0  0  0  0  0  0  0
    0.6044   -5.2443   34.5609 C   0  0  0  0  0  0  0  0  0  0  0  0
    1.3181   -4.3451   33.9426 N   0  0  0  0  0  0  0  0  0  0  0  0
    0.3131   -3.7642   33.2147 N   0  0  0  0  0  0  0  0  0  0  0  0
   -0.8420   -3.7398   34.1285 N   0  0  0  0  0  0  0  0  0  0  0  0
   -0.6019   -4.8031   35.0400 N   0  0  0  0  0  0  0  0  0  0  0  0
    0.0136   -4.6535   32.0153 C   0  0  0  0  0  0  0  0  0  0  0  0
    1.0421   -4.2419   30.9185 C   0  0  0  0  0  0  0  0  0  0  0  0
    0.7176   -2.9529   30.1693 C   0  0  0  0  0  0  0  0  0  0  0  0
    0.3679   -1.8644   31.0672 N   0  0  0  0  0  0  0  0  0  0  0  0
   -1.1854   -1.2538   31.0311 S   0  0  0  0  0  0  0  0  0  0  0  0
   -1.3206   -0.3589   32.1606 O   0  0  0  0  0  0  0  0  0  0  0  0
   -2.1072   -2.3577   30.8537 O   0  0  0  0  0  0  0  0  0  0  0  0
   -1.1587   -0.2651   29.5834 C   0  0  0  0  0  0  0  0  0  0  0  0
   -0.6073    1.0117   29.6066 C   0  0  0  0  0  0  0  0  0  0  0  0
   -0.8094    1.8508   28.5123 C   0  0  0  0  0  0  0  0  0  0  0  0
   -1.5685    1.3874   27.4499 C   0  0  0  0  0  0  0  0  0  0  0  0
   -1.9006    2.2195   26.3838 N   0  0  0  0  0  0  0  0  0  0  0  0
   -2.0221    0.1275   27.3829 N   0  0  0  0  0  0  0  0  0  0  0  0
   -1.8069   -0.6870   28.4435 C   0  0  0  0  0  0  0  0  0  0  0  0
   -2.8842  -12.2064   25.5722 H   0  0  0  0  0  0  0  0  0  0  0  0
   -2.2933  -13.4828   26.6637 H   0  0  0  0  0  0  0  0  0  0  0  0
   -3.7316  -12.6192   27.0798 H   0  0  0  0  0  0  0  0  0  0  0  0
   -1.6572  -10.8389   27.0655 H   0  0  0  0  0  0  0  0  0  0  0  0
   -0.4100   -9.7815   28.7464 H   0  0  0  0  0  0  0  0  0  0  0  0
   -0.6616  -10.5477   30.4060 H   0  0  0  0  0  0  0  0  0  0  0  0
   -1.6583   -7.7285   29.6124 H   0  0  0  0  0  0  0  0  0  0  0  0
    0.9827   -8.1848   29.5649 H   0  0  0  0  0  0  0  0  0  0  0  0
    0.0684   -6.6918   29.5523 H   0  0  0  0  0  0  0  0  0  0  0  0
    0.9429   -7.9624   32.0378 H   0  0  0  0  0  0  0  0  0  0  0  0
    1.8035   -6.5986   31.3310 H   0  0  0  0  0  0  0  0  0  0  0  0
   -1.9219   -6.1842   31.5941 H   0  0  0  0  0  0  0  0  0  0  0  0
   -1.8966   -6.7687   33.2617 H   0  0  0  0  0  0  0  0  0  0  0  0
   -1.0443   -8.9478   32.3549 H   0  0  0  0  0  0  0  0  0  0  0  0
   -2.6215   -8.4869   31.7384 H   0  0  0  0  0  0  0  0  0  0  0  0
    0.0243   -7.3037   34.4068 H   0  0  0  0  0  0  0  0  0  0  0  0
    1.6544   -6.8955   33.8142 H   0  0  0  0  0  0  0  0  0  0  0  0
   -1.7578   -3.8548   33.6738 H   0  0  0  0  0  0  0  0  0  0  0  0
   -0.5056   -4.4106   35.9759 H   0  0  0  0  0  0  0  0  0  0  0  0
   -0.9749   -4.3923   31.6288 H   0  0  0  0  0  0  0  0  0  0  0  0
    2.0460   -4.1621   31.3564 H   0  0  0  0  0  0  0  0  0  0  0  0
    1.1211   -4.9938   30.1335 H   0  0  0  0  0  0  0  0  0  0  0  0
    1.5946   -2.6461   29.5878 H   0  0  0  0  0  0  0  0  0  0  0  0
   -0.0754   -3.1427   29.4376 H   0  0  0  0  0  0  0  0  0  0  0  0
    0.8135   -1.8223   31.9894 H   0  0  0  0  0  0  0  0  0  0  0  0
   -0.0722    1.3756   30.4793 H   0  0  0  0  0  0  0  0  0  0  0  0
   -0.4327    2.8686   28.5172 H   0  0  0  0  0  0  0  0  0  0  0  0
   -2.3332    3.0764   26.7248 H   0  0  0  0  0  0  0  0  0  0  0  0
   -2.5746    1.6912   25.8314 H   0  0  0  0  0  0  0  0  0  0  0  0
   -2.2362   -1.6805   28.3411 H   0  0  0  0  0  0  0  0  0  0  0  0
  1  2  1  0
  2  3  1  0
  3  4  2  0
  3  5  1  0
  5  6  1  0
  6  7  1  0
  7  8  1  0
  8  9  1  0
  9 10  1  0
 10 11  1  0
  9 12  1  0
 12 13  1  0
 13 14  2  0
 14 15  1  0
 15 16  1  0
 16 17  1  0
 15 18  1  0
 18 19  1  0
 19 20  1  0
 20 21  1  0
 21 22  1  0
 22 23  2  0
 22 24  2  0
 22 25  1  0
 25 26  2  0
 26 27  1  0
 27 28  2  0
 28 29  1  0
 28 30  1  0
 30 31  2  0
 11  6  1  0
 17 13  1  0
 31 25  1  0
 18  9  1  0
  1 32  1  0
  1 33  1  0
  1 34  1  0
  2 35  1  0
  5 36  1  0
  5 37  1  0
  6 38  1  0
  7 39  1  0
  7 40  1  0
  8 41  1  0
  8 42  1  0
 10 43  1  0
 10 44  1  0
 11 45  1  0
 11 46  1  0
 12 47  1  0
 12 48  1  0
 16 49  1  0
 17 50  1  0
 18 51  1  0
 19 52  1  0
 19 53  1  0
 20 54  1  0
 20 55  1  0
 21 56  1  0
 26 57  1  0
 27 58  1  0
 29 59  1  0
 29 60  1  0
 31 61  1  0
M  END
>  <Energy>  (67) 
114.63230979152588

>  <compound_id>  (67) 
212

>  <target_id>  (67) 
1

>  <reference_id>  (67) 
198

>  <inspiration_ids>  (67) 
[198, 78]

>  <energy_score>  (67) 
-113.91489790565777

>  <distance_score>  (67) 
1.8410546307428648

>  <path>  (67) 
/opt/xchem-fragalysis-2/maxwin/BulkDock/SCRATCH/505737/C212-P198/C212-P198.minimised.mol

>  <scratch_subdir>  (67) 
/opt/xchem-fragalysis-2/maxwin/BulkDock/SCRATCH/505737/C212-P198

>  <fragmenstein_runtime>  (67) 
21.61001682281494

>  <fragmenstein_outcome>  (67) 
too moved

>  <fragmenstein_mode>  (67) 
expansion

>  <fragmenstein_error>  (67) 


$$$$
C212-P78
     RDKit          3D

 61 64  0  0  0  0  0  0  0  0999 V2000
   -2.8209  -12.4202   26.5778 C   0  0  0  0  0  0  0  0  0  0  0  0
   -2.2721  -11.4369   27.4312 N   0  0  0  0  0  0  0  0  0  0  0  0
   -2.2231  -11.3545   28.8685 C   0  0  0  0  0  0  0  0  0  0  0  0
   -2.7030  -12.0547   29.6881 O   0  0  0  0  0  0  0  0  0  0  0  0
   -1.0936   -9.9671   29.5616 C   0  0  0  0  0  0  0  0  0  0  0  0
   -0.9896   -8.3948   30.1211 C   0  0  0  0  0  0  0  0  0  0  0  0
    0.4615   -7.9077   30.1614 C   0  0  0  0  0  0  0  0  0  0  0  0
    0.6661   -6.4537   30.5758 C   0  0  0  0  0  0  0  0  0  0  0  0
    0.2184   -6.1789   32.0415 C   0  0  0  0  0  0  0  0  0  0  0  0
   -1.2325   -6.7247   32.0916 C   0  0  0  0  0  0  0  0  0  0  0  0
   -1.4814   -8.1640   31.5822 C   0  0  0  0  0  0  0  0  0  0  0  0
    1.0759   -6.9450   33.1185 C   0  0  0  0  0  0  0  0  0  0  0  0
    0.9533   -6.1396   34.3871 C   0  0  0  0  0  0  0  0  0  0  0  0
    1.5588   -4.9898   34.2925 N   0  0  0  0  0  0  0  0  0  0  0  0
    0.4854   -4.2488   33.8622 N   0  0  0  0  0  0  0  0  0  0  0  0
   -0.6324   -4.7319   34.6818 N   0  0  0  0  0  0  0  0  0  0  0  0
   -0.2829   -6.0799   34.9991 N   0  0  0  0  0  0  0  0  0  0  0  0
    0.2571   -4.5698   32.3802 C   0  0  0  0  0  0  0  0  0  0  0  0
    1.4184   -3.8153   31.6557 C   0  0  0  0  0  0  0  0  0  0  0  0
    0.9340   -2.9058   30.5337 C   0  0  0  0  0  0  0  0  0  0  0  0
    0.2386   -1.7778   31.1399 N   0  0  0  0  0  0  0  0  0  0  0  0
   -1.3388   -1.4241   30.7616 S   0  0  0  0  0  0  0  0  0  0  0  0
   -1.8158   -0.5427   31.8069 O   0  0  0  0  0  0  0  0  0  0  0  0
   -2.0174   -2.6700   30.4763 O   0  0  0  0  0  0  0  0  0  0  0  0
   -1.1761   -0.4536   29.3126 C   0  0  0  0  0  0  0  0  0  0  0  0
   -0.5298    0.7786   29.3685 C   0  0  0  0  0  0  0  0  0  0  0  0
   -0.6450    1.6483   28.2860 C   0  0  0  0  0  0  0  0  0  0  0  0
   -1.4259    1.2662   27.2075 C   0  0  0  0  0  0  0  0  0  0  0  0
   -1.6871    2.1485   26.1624 N   0  0  0  0  0  0  0  0  0  0  0  0
   -1.9685    0.0445   27.1077 N   0  0  0  0  0  0  0  0  0  0  0  0
   -1.8205   -0.8083   28.1503 C   0  0  0  0  0  0  0  0  0  0  0  0
   -2.8643  -12.1518   25.5373 H   0  0  0  0  0  0  0  0  0  0  0  0
   -2.3416  -13.3970   26.6711 H   0  0  0  0  0  0  0  0  0  0  0  0
   -3.7834  -12.3721   27.0144 H   0  0  0  0  0  0  0  0  0  0  0  0
   -1.6927  -10.7338   27.0472 H   0  0  0  0  0  0  0  0  0  0  0  0
   -0.3288   -9.8783   28.7848 H   0  0  0  0  0  0  0  0  0  0  0  0
   -0.8018  -10.4931   30.4671 H   0  0  0  0  0  0  0  0  0  0  0  0
   -1.5223   -7.7200   29.4418 H   0  0  0  0  0  0  0  0  0  0  0  0
    0.9246   -8.4353   30.9580 H   0  0  0  0  0  0  0  0  0  0  0  0
    1.0345   -8.1791   29.2738 H   0  0  0  0  0  0  0  0  0  0  0  0
    1.7287   -6.2332   30.4500 H   0  0  0  0  0  0  0  0  0  0  0  0
    0.1158   -5.7970   29.8949 H   0  0  0  0  0  0  0  0  0  0  0  0
   -1.7983   -6.0573   31.4546 H   0  0  0  0  0  0  0  0  0  0  0  0
   -1.6644   -6.6539   33.0891 H   0  0  0  0  0  0  0  0  0  0  0  0
   -0.9870   -8.8683   32.2525 H   0  0  0  0  0  0  0  0  0  0  0  0
   -2.5499   -8.3606   31.6888 H   0  0  0  0  0  0  0  0  0  0  0  0
    2.1291   -6.9394   32.8315 H   0  0  0  0  0  0  0  0  0  0  0  0
    0.7174   -7.9519   33.3145 H   0  0  0  0  0  0  0  0  0  0  0  0
   -1.5584   -4.6339   34.2454 H   0  0  0  0  0  0  0  0  0  0  0  0
   -0.1918   -6.1538   36.0136 H   0  0  0  0  0  0  0  0  0  0  0  0
   -0.7051   -4.1344   32.0965 H   0  0  0  0  0  0  0  0  0  0  0  0
    1.9640   -3.1732   32.3639 H   0  0  0  0  0  0  0  0  0  0  0  0
    2.1887   -4.4963   31.2890 H   0  0  0  0  0  0  0  0  0  0  0  0
    1.7986   -2.5105   29.9894 H   0  0  0  0  0  0  0  0  0  0  0  0
    0.3182   -3.4444   29.8090 H   0  0  0  0  0  0  0  0  0  0  0  0
    0.5786   -1.3877   32.0202 H   0  0  0  0  0  0  0  0  0  0  0  0
    0.0017    1.0943   30.2615 H   0  0  0  0  0  0  0  0  0  0  0  0
   -0.1944    2.6351   28.3162 H   0  0  0  0  0  0  0  0  0  0  0  0
   -2.0647    3.0236   26.5208 H   0  0  0  0  0  0  0  0  0  0  0  0
   -2.3866    1.6876   25.5823 H   0  0  0  0  0  0  0  0  0  0  0  0
   -2.2998   -1.7718   28.0139 H   0  0  0  0  0  0  0  0  0  0  0  0
  1  2  1  0
  2  3  1  0
  3  4  2  0
  3  5  1  0
  5  6  1  0
  6  7  1  0
  7  8  1  0
  8  9  1  0
  9 10  1  0
 10 11  1  0
  9 12  1  0
 12 13  1  0
 13 14  2  0
 14 15  1  0
 15 16  1  0
 16 17  1  0
 15 18  1  0
 18 19  1  0
 19 20  1  0
 20 21  1  0
 21 22  1  0
 22 23  2  0
 22 24  2  0
 22 25  1  0
 25 26  2  0
 26 27  1  0
 27 28  2  0
 28 29  1  0
 28 30  1  0
 30 31  2  0
 11  6  1  0
 17 13  1  0
 31 25  1  0
 18  9  1  0
  1 32  1  0
  1 33  1  0
  1 34  1  0
  2 35  1  0
  5 36  1  0
  5 37  1  0
  6 38  1  0
  7 39  1  0
  7 40  1  0
  8 41  1  0
  8 42  1  0
 10 43  1  0
 10 44  1  0
 11 45  1  0
 11 46  1  0
 12 47  1  0
 12 48  1  0
 16 49  1  0
 17 50  1  0
 18 51  1  0
 19 52  1  0
 19 53  1  0
 20 54  1  0
 20 55  1  0
 21 56  1  0
 26 57  1  0
 27 58  1  0
 29 59  1  0
 29 60  1  0
 31 61  1  0
M  END
>  <Energy>  (68) 
92.983592948073593

>  <compound_id>  (68) 
212

>  <target_id>  (68) 
1

>  <reference_id>  (68) 
78

>  <inspiration_ids>  (68) 
[198, 78]

>  <energy_score>  (68) 
-135.56361474911057

>  <distance_score>  (68) 
1.6701782712904307

>  <path>  (68) 
/opt/xchem-fragalysis-2/maxwin/BulkDock/SCRATCH/505737/C212-P78/C212-P78.minimised.mol

>  <scratch_subdir>  (68) 
/opt/xchem-fragalysis-2/maxwin/BulkDock/SCRATCH/505737/C212-P78

>  <fragmenstein_runtime>  (68) 
19.79887366294861

>  <fragmenstein_outcome>  (68) 
too moved

>  <fragmenstein_mode>  (68) 
expansion

>  <fragmenstein_error>  (68) 


$$$$
C213-P198
     RDKit          3D

 58 62  0  0  0  0  0  0  0  0999 V2000
    0.1796   -7.7021   36.5434 C   0  0  0  0  0  0  0  0  0  0  0  0
   -1.2445   -7.4410   35.4964 S   0  0  0  0  0  0  0  0  0  0  0  0
   -1.6573   -6.0783   35.6911 O   0  0  0  0  0  0  0  0  0  0  0  0
   -2.2558   -8.4582   35.6708 O   0  0  0  0  0  0  0  0  0  0  0  0
   -0.6031   -7.7675   33.9167 N   0  0  0  0  0  0  0  0  0  0  0  0
   -1.2000   -7.0164   32.7891 C   0  0  0  0  0  0  0  0  0  0  0  0
   -0.7524   -7.4308   31.3839 C   0  0  0  0  0  0  0  0  0  0  0  0
    0.0649   -6.4113   30.5273 C   0  0  0  0  0  0  0  0  0  0  0  0
    0.2886   -4.9597   31.0485 C   0  0  0  0  0  0  0  0  0  0  0  0
   -0.8206   -4.1788   30.5488 O   0  0  0  0  0  0  0  0  0  0  0  0
   -0.8809   -2.8448   31.0744 N   0  0  0  0  0  0  0  0  0  0  0  0
    0.2068   -1.8075   30.3678 S   0  0  0  0  0  0  0  0  0  0  0  0
    0.8076   -1.0497   31.4469 O   0  0  0  0  0  0  0  0  0  0  0  0
    1.0035   -2.5751   29.4426 O   0  0  0  0  0  0  0  0  0  0  0  0
   -0.7418   -0.6996   29.4192 C   0  0  0  0  0  0  0  0  0  0  0  0
   -0.5962    0.6746   29.5777 C   0  0  0  0  0  0  0  0  0  0  0  0
   -1.1863    1.5179   28.6434 C   0  0  0  0  0  0  0  0  0  0  0  0
   -1.9228    0.9593   27.6140 C   0  0  0  0  0  0  0  0  0  0  0  0
   -2.4892    1.7572   26.6297 N   0  0  0  0  0  0  0  0  0  0  0  0
   -2.0966   -0.3637   27.4842 N   0  0  0  0  0  0  0  0  0  0  0  0
   -1.4864   -1.1816   28.3678 C   0  0  0  0  0  0  0  0  0  0  0  0
   -1.5378   -2.5013   32.3227 C   0  0  0  0  0  0  0  0  0  0  0  0
   -0.6220   -2.6886   33.5218 C   0  0  0  0  0  0  0  0  0  0  0  0
    0.5934   -3.6287   33.3527 C   0  0  0  0  0  0  0  0  0  0  0  0
    1.0519   -3.9177   34.7962 N   0  0  0  0  0  0  0  0  0  0  0  0
    0.9397   -5.2587   35.0699 N   0  0  0  0  0  0  0  0  0  0  0  0
    1.9311   -5.6867   34.3486 C   0  0  0  0  0  0  0  0  0  0  0  0
    1.5876   -5.9724   32.9225 C   0  0  0  0  0  0  0  0  0  0  0  0
    0.3811   -5.0163   32.5698 C   0  0  0  0  0  0  0  0  0  0  0  0
   -0.9926   -5.5535   32.9634 C   0  0  0  0  0  0  0  0  0  0  0  0
    3.0786   -4.9879   34.5986 N   0  0  0  0  0  0  0  0  0  0  0  0
    2.5003   -3.6894   34.8209 N   0  0  0  0  0  0  0  0  0  0  0  0
    1.0426   -7.9604   35.9304 H   0  0  0  0  0  0  0  0  0  0  0  0
    0.3873   -6.7767   37.0853 H   0  0  0  0  0  0  0  0  0  0  0  0
   -0.0216   -8.4762   37.2717 H   0  0  0  0  0  0  0  0  0  0  0  0
   -0.8638   -8.7638   33.8299 H   0  0  0  0  0  0  0  0  0  0  0  0
   -2.2433   -7.2816   32.8344 H   0  0  0  0  0  0  0  0  0  0  0  0
   -1.6692   -7.6052   30.8133 H   0  0  0  0  0  0  0  0  0  0  0  0
   -0.2484   -8.3987   31.3946 H   0  0  0  0  0  0  0  0  0  0  0  0
   -0.4234   -6.3506   29.5569 H   0  0  0  0  0  0  0  0  0  0  0  0
    1.0427   -6.8547   30.3392 H   0  0  0  0  0  0  0  0  0  0  0  0
    1.2177   -4.5850   30.6110 H   0  0  0  0  0  0  0  0  0  0  0  0
    0.0271    1.0942   30.3624 H   0  0  0  0  0  0  0  0  0  0  0  0
   -1.0525    2.5940   28.6977 H   0  0  0  0  0  0  0  0  0  0  0  0
   -3.0658    2.4932   27.0325 H   0  0  0  0  0  0  0  0  0  0  0  0
   -3.0464    1.1386   26.0431 H   0  0  0  0  0  0  0  0  0  0  0  0
   -1.5959   -2.2421   28.1620 H   0  0  0  0  0  0  0  0  0  0  0  0
   -1.8900   -1.4631   32.2842 H   0  0  0  0  0  0  0  0  0  0  0  0
   -2.4515   -3.0879   32.4247 H   0  0  0  0  0  0  0  0  0  0  0  0
   -0.2375   -1.7032   33.8220 H   0  0  0  0  0  0  0  0  0  0  0  0
   -1.2466   -2.9953   34.3716 H   0  0  0  0  0  0  0  0  0  0  0  0
    1.3864   -3.0799   32.8289 H   0  0  0  0  0  0  0  0  0  0  0  0
    2.4556   -5.7291   32.2994 H   0  0  0  0  0  0  0  0  0  0  0  0
    1.3913   -7.0312   32.8109 H   0  0  0  0  0  0  0  0  0  0  0  0
   -1.2538   -5.1836   33.9342 H   0  0  0  0  0  0  0  0  0  0  0  0
   -1.7437   -5.0851   32.3467 H   0  0  0  0  0  0  0  0  0  0  0  0
    3.4950   -5.3093   35.4730 H   0  0  0  0  0  0  0  0  0  0  0  0
    2.7371   -3.3374   35.7547 H   0  0  0  0  0  0  0  0  0  0  0  0
  1  2  1  0
  2  3  2  0
  2  4  2  0
  2  5  1  0
  5  6  1  0
  6  7  1  0
  7  8  1  0
  8  9  1  0
  9 10  1  0
 10 11  1  0
 11 12  1  0
 12 13  2  0
 12 14  2  0
 12 15  1  0
 15 16  2  0
 16 17  1  0
 17 18  2  0
 18 19  1  0
 18 20  1  0
 20 21  2  0
 11 22  1  0
 22 23  1  0
 23 24  1  0
 24 25  1  0
 25 26  1  0
 26 27  2  0
 27 28  1  0
 28 29  1  0
 29 30  1  0
 27 31  1  0
 31 32  1  0
 30  6  1  0
 29  9  1  0
 21 15  1  0
 29 24  1  0
 32 25  1  0
  1 33  1  0
  1 34  1  0
  1 35  1  0
  5 36  1  0
  6 37  1  0
  7 38  1  0
  7 39  1  0
  8 40  1  0
  8 41  1  0
  9 42  1  0
 16 43  1  0
 17 44  1  0
 19 45  1  0
 19 46  1  0
 21 47  1  0
 22 48  1  0
 22 49  1  0
 23 50  1  0
 23 51  1  0
 24 52  1  0
 28 53  1  0
 28 54  1  0
 30 55  1  0
 30 56  1  0
 31 57  1  0
 32 58  1  0
M  END
>  <Energy>  (69) 
75.208761367722715

>  <compound_id>  (69) 
213

>  <target_id>  (69) 
1

>  <reference_id>  (69) 
198

>  <inspiration_ids>  (69) 
[198, 105]

>  <energy_score>  (69) 
-188.1308244467002

>  <distance_score>  (69) 
2.1341383821229845

>  <path>  (69) 
/opt/xchem-fragalysis-2/maxwin/BulkDock/SCRATCH/505737/C213-P198/C213-P198.minimised.mol

>  <scratch_subdir>  (69) 
/opt/xchem-fragalysis-2/maxwin/BulkDock/SCRATCH/505737/C213-P198

>  <fragmenstein_runtime>  (69) 
5.451289892196655

>  <fragmenstein_outcome>  (69) 
too moved

>  <fragmenstein_mode>  (69) 
expansion

>  <fragmenstein_error>  (69) 


$$$$
C213-P105
     RDKit          3D

 58 62  0  0  0  0  0  0  0  0999 V2000
    1.1080   -8.8848   36.8001 C   0  0  0  0  0  0  0  0  0  0  0  0
    1.9216   -7.6941   35.7555 S   0  0  0  0  0  0  0  0  0  0  0  0
    2.5688   -6.7263   36.6119 O   0  0  0  0  0  0  0  0  0  0  0  0
    2.6598   -8.3961   34.7286 O   0  0  0  0  0  0  0  0  0  0  0  0
    0.6055   -6.9230   35.0417 N   0  0  0  0  0  0  0  0  0  0  0  0
    0.6672   -6.2391   33.7138 C   0  0  0  0  0  0  0  0  0  0  0  0
    2.0562   -5.8509   33.2046 C   0  0  0  0  0  0  0  0  0  0  0  0
    2.0121   -4.6206   32.2948 C   0  0  0  0  0  0  0  0  0  0  0  0
    1.5278   -3.3487   33.0284 C   0  0  0  0  0  0  0  0  0  0  0  0
    1.1965   -2.3038   32.0971 O   0  0  0  0  0  0  0  0  0  0  0  0
   -0.1005   -2.5200   31.5479 N   0  0  0  0  0  0  0  0  0  0  0  0
   -0.0088   -2.7995   29.8696 S   0  0  0  0  0  0  0  0  0  0  0  0
    1.3371   -3.1970   29.5163 O   0  0  0  0  0  0  0  0  0  0  0  0
   -1.1324   -3.6708   29.6111 O   0  0  0  0  0  0  0  0  0  0  0  0
   -0.3256   -1.2397   29.1380 C   0  0  0  0  0  0  0  0  0  0  0  0
    0.5122   -0.1531   29.3591 C   0  0  0  0  0  0  0  0  0  0  0  0
    0.1551    1.0793   28.8162 C   0  0  0  0  0  0  0  0  0  0  0  0
   -1.0258    1.1825   28.0911 C   0  0  0  0  0  0  0  0  0  0  0  0
   -1.4721    2.4114   27.6418 N   0  0  0  0  0  0  0  0  0  0  0  0
   -1.8318    0.1344   27.8715 N   0  0  0  0  0  0  0  0  0  0  0  0
   -1.4556   -1.0687   28.3635 C   0  0  0  0  0  0  0  0  0  0  0  0
   -1.1872   -1.6876   32.0643 C   0  0  0  0  0  0  0  0  0  0  0  0
   -1.7070   -2.2979   33.3464 C   0  0  0  0  0  0  0  0  0  0  0  0
   -0.6220   -2.4910   34.4095 C   0  0  0  0  0  0  0  0  0  0  0  0
   -1.3633   -2.7478   35.7477 N   0  0  0  0  0  0  0  0  0  0  0  0
   -0.9185   -3.9143   36.3390 N   0  0  0  0  0  0  0  0  0  0  0  0
    0.2970   -3.5250   36.6127 C   0  0  0  0  0  0  0  0  0  0  0  0
    1.2839   -3.8101   35.5130 C   0  0  0  0  0  0  0  0  0  0  0  0
    0.4671   -3.6574   34.1449 C   0  0  0  0  0  0  0  0  0  0  0  0
   -0.2548   -5.0055   33.7473 C   0  0  0  0  0  0  0  0  0  0  0  0
    0.3492   -2.2784   37.2011 N   0  0  0  0  0  0  0  0  0  0  0  0
   -0.8689   -1.7046   36.6818 N   0  0  0  0  0  0  0  0  0  0  0  0
    0.5079   -9.5570   36.1909 H   0  0  0  0  0  0  0  0  0  0  0  0
    1.8798   -9.4518   37.3253 H   0  0  0  0  0  0  0  0  0  0  0  0
    0.4849   -8.3522   37.5213 H   0  0  0  0  0  0  0  0  0  0  0  0
    0.0827   -6.3823   35.7395 H   0  0  0  0  0  0  0  0  0  0  0  0
    0.2300   -6.9546   33.0040 H   0  0  0  0  0  0  0  0  0  0  0  0
    2.7759   -5.6679   34.0074 H   0  0  0  0  0  0  0  0  0  0  0  0
    2.4505   -6.6868   32.6299 H   0  0  0  0  0  0  0  0  0  0  0  0
    1.3671   -4.8511   31.4413 H   0  0  0  0  0  0  0  0  0  0  0  0
    3.0047   -4.4321   31.8675 H   0  0  0  0  0  0  0  0  0  0  0  0
    2.4193   -2.9432   33.5215 H   0  0  0  0  0  0  0  0  0  0  0  0
    1.4187   -0.2535   29.9490 H   0  0  0  0  0  0  0  0  0  0  0  0
    0.7686    1.9577   28.9880 H   0  0  0  0  0  0  0  0  0  0  0  0
   -0.8015    2.9292   27.0918 H   0  0  0  0  0  0  0  0  0  0  0  0
   -2.3613    2.2921   27.1598 H   0  0  0  0  0  0  0  0  0  0  0  0
   -2.1275   -1.8861   28.1170 H   0  0  0  0  0  0  0  0  0  0  0  0
   -2.0181   -1.6303   31.3535 H   0  0  0  0  0  0  0  0  0  0  0  0
   -0.8249   -0.6682   32.2368 H   0  0  0  0  0  0  0  0  0  0  0  0
   -2.4947   -1.6378   33.7325 H   0  0  0  0  0  0  0  0  0  0  0  0
   -2.1870   -3.2450   33.1021 H   0  0  0  0  0  0  0  0  0  0  0  0
   -0.0641   -1.5445   34.4820 H   0  0  0  0  0  0  0  0  0  0  0  0
    2.0871   -3.0670   35.5844 H   0  0  0  0  0  0  0  0  0  0  0  0
    1.7288   -4.7778   35.6667 H   0  0  0  0  0  0  0  0  0  0  0  0
   -0.6755   -4.8868   32.7400 H   0  0  0  0  0  0  0  0  0  0  0  0
   -1.1212   -5.2196   34.3769 H   0  0  0  0  0  0  0  0  0  0  0  0
    0.3131   -2.3541   38.2178 H   0  0  0  0  0  0  0  0  0  0  0  0
   -1.5672   -1.6416   37.4306 H   0  0  0  0  0  0  0  0  0  0  0  0
  1  2  1  0
  2  3  2  0
  2  4  2  0
  2  5  1  0
  5  6  1  0
  6  7  1  0
  7  8  1  0
  8  9  1  0
  9 10  1  0
 10 11  1  0
 11 12  1  0
 12 13  2  0
 12 14  2  0
 12 15  1  0
 15 16  2  0
 16 17  1  0
 17 18  2  0
 18 19  1  0
 18 20  1  0
 20 21  2  0
 11 22  1  0
 22 23  1  0
 23 24  1  0
 24 25  1  0
 25 26  1  0
 26 27  2  0
 27 28  1  0
 28 29  1  0
 29 30  1  0
 27 31  1  0
 31 32  1  0
 30  6  1  0
 29  9  1  0
 21 15  1  0
 29 24  1  0
 32 25  1  0
  1 33  1  0
  1 34  1  0
  1 35  1  0
  5 36  1  0
  6 37  1  0
  7 38  1  0
  7 39  1  0
  8 40  1  0
  8 41  1  0
  9 42  1  0
 16 43  1  0
 17 44  1  0
 19 45  1  0
 19 46  1  0
 21 47  1  0
 22 48  1  0
 22 49  1  0
 23 50  1  0
 23 51  1  0
 24 52  1  0
 28 53  1  0
 28 54  1  0
 30 55  1  0
 30 56  1  0
 31 57  1  0
 32 58  1  0
M  END
>  <Energy>  (70) 
36.7083994249668

>  <compound_id>  (70) 
213

>  <target_id>  (70) 
1

>  <reference_id>  (70) 
105

>  <inspiration_ids>  (70) 
[198, 105]

>  <energy_score>  (70) 
-226.46788140531356

>  <distance_score>  (70) 
3.211545816805551

>  <path>  (70) 
/opt/xchem-fragalysis-2/maxwin/BulkDock/SCRATCH/505737/C213-P105/C213-P105.minimised.mol

>  <scratch_subdir>  (70) 
/opt/xchem-fragalysis-2/maxwin/BulkDock/SCRATCH/505737/C213-P105

>  <fragmenstein_runtime>  (70) 
8.52067232131958

>  <fragmenstein_outcome>  (70) 
too moved

>  <fragmenstein_mode>  (70) 
expansion

>  <fragmenstein_error>  (70) 


$$$$
C215-P198
     RDKit          3D

 60 63  0  0  0  0  0  0  0  0999 V2000
   -1.0265   -8.7633   31.4549 C   0  0  0  0  0  0  0  0  0  0  0  0
   -1.8531   -7.6424   31.6023 O   0  0  0  0  0  0  0  0  0  0  0  0
   -1.1307   -6.4664   31.9535 C   0  0  0  0  0  0  0  0  0  0  0  0
   -0.1431   -6.1065   30.8459 C   0  0  0  0  0  0  0  0  0  0  0  0
    1.2722   -6.2379   31.3648 C   0  0  0  0  0  0  0  0  0  0  0  0
    1.5842   -5.2829   32.5237 C   0  0  0  0  0  0  0  0  0  0  0  0
    2.5835   -5.8790   33.5018 C   0  0  0  0  0  0  0  0  0  0  0  0
    3.4163   -5.0531   34.1421 C   0  0  0  0  0  0  0  0  0  0  0  0
    4.3378   -5.3717   35.1116 N   0  0  0  0  0  0  0  0  0  0  0  0
    4.8982   -4.0657   35.4742 C   0  0  0  0  0  0  0  0  0  0  0  0
    4.4474   -3.0247   34.5222 N   0  0  0  0  0  0  0  0  0  0  0  0
    3.3932   -3.6927   33.8505 N   0  0  0  0  0  0  0  0  0  0  0  0
    3.0767   -3.2378   32.6238 N   0  0  0  0  0  0  0  0  0  0  0  0
    2.2784   -4.0126   31.9349 C   0  0  0  0  0  0  0  0  0  0  0  0
    2.1349   -3.6131   30.4616 C   0  0  0  0  0  0  0  0  0  0  0  0
    0.8782   -2.8518   30.1194 C   0  0  0  0  0  0  0  0  0  0  0  0
    0.2770   -2.3350   31.3387 N   0  0  0  0  0  0  0  0  0  0  0  0
   -1.3359   -1.9232   31.3621 S   0  0  0  0  0  0  0  0  0  0  0  0
   -1.5247   -1.1239   32.5503 O   0  0  0  0  0  0  0  0  0  0  0  0
   -2.1034   -3.1255   31.1234 O   0  0  0  0  0  0  0  0  0  0  0  0
   -1.4274   -0.8742   29.9699 C   0  0  0  0  0  0  0  0  0  0  0  0
   -1.0109    0.4492   30.0446 C   0  0  0  0  0  0  0  0  0  0  0  0
   -1.1354    1.2511   28.9141 C   0  0  0  0  0  0  0  0  0  0  0  0
   -1.6644    0.6962   27.7633 C   0  0  0  0  0  0  0  0  0  0  0  0
   -1.9624    1.4721   26.6585 N   0  0  0  0  0  0  0  0  0  0  0  0
   -2.0138   -0.5939   27.6754 N   0  0  0  0  0  0  0  0  0  0  0  0
   -1.8960   -1.3642   28.7737 C   0  0  0  0  0  0  0  0  0  0  0  0
    0.3185   -5.1000   33.3961 C   0  0  0  0  0  0  0  0  0  0  0  0
   -0.4899   -6.4268   33.3644 C   0  0  0  0  0  0  0  0  0  0  0  0
   -1.4557   -6.5062   34.4071 O   0  0  0  0  0  0  0  0  0  0  0  0
   -0.8669   -6.8063   35.6682 C   0  0  0  0  0  0  0  0  0  0  0  0
   -1.6382   -9.6405   31.3270 H   0  0  0  0  0  0  0  0  0  0  0  0
   -0.4466   -8.8708   32.3554 H   0  0  0  0  0  0  0  0  0  0  0  0
   -0.3887   -8.6930   30.5722 H   0  0  0  0  0  0  0  0  0  0  0  0
   -1.8489   -5.6623   31.9560 H   0  0  0  0  0  0  0  0  0  0  0  0
   -0.2833   -6.7074   29.9452 H   0  0  0  0  0  0  0  0  0  0  0  0
   -0.3394   -5.0852   30.5413 H   0  0  0  0  0  0  0  0  0  0  0  0
    1.9741   -6.1442   30.5406 H   0  0  0  0  0  0  0  0  0  0  0  0
    1.3513   -7.2561   31.7197 H   0  0  0  0  0  0  0  0  0  0  0  0
    2.5483   -6.9171   33.7879 H   0  0  0  0  0  0  0  0  0  0  0  0
    3.9036   -5.8446   35.8978 H   0  0  0  0  0  0  0  0  0  0  0  0
    4.5638   -3.7928   36.4824 H   0  0  0  0  0  0  0  0  0  0  0  0
    5.9922   -4.1197   35.4893 H   0  0  0  0  0  0  0  0  0  0  0  0
    5.1823   -2.9136   33.8271 H   0  0  0  0  0  0  0  0  0  0  0  0
    2.9819   -2.9416   30.2510 H   0  0  0  0  0  0  0  0  0  0  0  0
    2.2983   -4.4333   29.7634 H   0  0  0  0  0  0  0  0  0  0  0  0
    1.1474   -2.0128   29.4667 H   0  0  0  0  0  0  0  0  0  0  0  0
    0.1869   -3.4714   29.5462 H   0  0  0  0  0  0  0  0  0  0  0  0
    0.8528   -1.7465   31.9498 H   0  0  0  0  0  0  0  0  0  0  0  0
   -0.6197    0.8639   30.9688 H   0  0  0  0  0  0  0  0  0  0  0  0
   -0.8768    2.3046   28.9439 H   0  0  0  0  0  0  0  0  0  0  0  0
   -2.3241    0.8238   25.9625 H   0  0  0  0  0  0  0  0  0  0  0  0
   -1.1971    2.0540   26.3536 H   0  0  0  0  0  0  0  0  0  0  0  0
   -2.2139   -2.3924   28.6441 H   0  0  0  0  0  0  0  0  0  0  0  0
   -0.3022   -4.2762   33.0307 H   0  0  0  0  0  0  0  0  0  0  0  0
    0.5559   -4.8024   34.4250 H   0  0  0  0  0  0  0  0  0  0  0  0
    0.1690   -7.2887   33.5069 H   0  0  0  0  0  0  0  0  0  0  0  0
    0.2029   -6.5808   35.7156 H   0  0  0  0  0  0  0  0  0  0  0  0
   -1.0116   -7.8689   35.8763 H   0  0  0  0  0  0  0  0  0  0  0  0
   -1.3695   -6.2125   36.4328 H   0  0  0  0  0  0  0  0  0  0  0  0
  1  2  1  0
  2  3  1  0
  3  4  1  0
  4  5  1  0
  5  6  1  0
  6  7  1  0
  7  8  2  0
  8  9  1  0
  9 10  1  0
 10 11  1  0
 11 12  1  0
 12 13  1  0
 13 14  2  0
 14 15  1  0
 15 16  1  0
 16 17  1  0
 17 18  1  0
 18 19  2  0
 18 20  2  0
 18 21  1  0
 21 22  2  0
 22 23  1  0
 23 24  2  0
 24 25  1  0
 24 26  1  0
 26 27  2  0
  6 28  1  0
 28 29  1  0
 29 30  1  0
 30 31  1  0
 29  3  1  0
 14  6  1  0
 27 21  1  0
 12  8  1  0
  1 32  1  0
  1 33  1  0
  1 34  1  0
  3 35  1  0
  4 36  1  0
  4 37  1  0
  5 38  1  0
  5 39  1  0
  7 40  1  0
  9 41  1  0
 10 42  1  0
 10 43  1  0
 11 44  1  0
 15 45  1  0
 15 46  1  0
 16 47  1  0
 16 48  1  0
 17 49  1  0
 22 50  1  0
 23 51  1  0
 25 52  1  0
 25 53  1  0
 27 54  1  0
 28 55  1  0
 28 56  1  0
 29 57  1  0
 31 58  1  0
 31 59  1  0
 31 60  1  0
M  END
>  <Energy>  (71) 
-43.065589872672824

>  <compound_id>  (71) 
215

>  <target_id>  (71) 
1

>  <reference_id>  (71) 
198

>  <inspiration_ids>  (71) 
[198, 129]

>  <energy_score>  (71) 
-72.41514883209584

>  <distance_score>  (71) 
1.4324715675422932

>  <path>  (71) 
/opt/xchem-fragalysis-2/maxwin/BulkDock/SCRATCH/505737/C215-P198/C215-P198.minimised.mol

>  <scratch_subdir>  (71) 
/opt/xchem-fragalysis-2/maxwin/BulkDock/SCRATCH/505737/C215-P198

>  <fragmenstein_runtime>  (71) 
7.213850975036621

>  <fragmenstein_outcome>  (71) 
too moved

>  <fragmenstein_mode>  (71) 
expansion

>  <fragmenstein_error>  (71) 


$$$$
C215-P129
     RDKit          3D

 60 63  0  0  0  0  0  0  0  0999 V2000
   -1.6559   -8.6898   32.3291 C   0  0  0  0  0  0  0  0  0  0  0  0
   -1.9163   -7.5155   31.6195 O   0  0  0  0  0  0  0  0  0  0  0  0
   -0.9971   -6.4868   31.9391 C   0  0  0  0  0  0  0  0  0  0  0  0
    0.1876   -6.6881   31.0101 C   0  0  0  0  0  0  0  0  0  0  0  0
    1.5027   -6.3419   31.6870 C   0  0  0  0  0  0  0  0  0  0  0  0
    1.5776   -5.1810   32.6742 C   0  0  0  0  0  0  0  0  0  0  0  0
    2.6227   -5.5134   33.7270 C   0  0  0  0  0  0  0  0  0  0  0  0
    3.5661   -4.6178   34.0176 C   0  0  0  0  0  0  0  0  0  0  0  0
    4.5828   -4.7362   34.9369 N   0  0  0  0  0  0  0  0  0  0  0  0
    5.2485   -3.4319   34.8640 C   0  0  0  0  0  0  0  0  0  0  0  0
    4.7430   -2.6565   33.7067 N   0  0  0  0  0  0  0  0  0  0  0  0
    3.5931   -3.4006   33.3593 N   0  0  0  0  0  0  0  0  0  0  0  0
    3.0392   -3.1794   32.1595 N   0  0  0  0  0  0  0  0  0  0  0  0
    2.0813   -3.9999   31.8167 C   0  0  0  0  0  0  0  0  0  0  0  0
    1.4986   -3.8336   30.4226 C   0  0  0  0  0  0  0  0  0  0  0  0
    1.2756   -2.3857   30.1298 C   0  0  0  0  0  0  0  0  0  0  0  0
    0.4923   -1.8440   31.2316 N   0  0  0  0  0  0  0  0  0  0  0  0
   -1.1527   -1.7150   31.1484 S   0  0  0  0  0  0  0  0  0  0  0  0
   -1.5582   -0.9671   32.3163 O   0  0  0  0  0  0  0  0  0  0  0  0
   -1.6964   -3.0242   30.8621 O   0  0  0  0  0  0  0  0  0  0  0  0
   -1.2684   -0.6813   29.7512 C   0  0  0  0  0  0  0  0  0  0  0  0
   -0.7934    0.6222   29.8085 C   0  0  0  0  0  0  0  0  0  0  0  0
   -0.9254    1.4338   28.6875 C   0  0  0  0  0  0  0  0  0  0  0  0
   -1.5113    0.9028   27.5556 C   0  0  0  0  0  0  0  0  0  0  0  0
   -1.8509    1.7032   26.4820 N   0  0  0  0  0  0  0  0  0  0  0  0
   -1.8765   -0.3822   27.4710 N   0  0  0  0  0  0  0  0  0  0  0  0
   -1.7419   -1.1660   28.5586 C   0  0  0  0  0  0  0  0  0  0  0  0
    0.2572   -4.9962   33.4282 C   0  0  0  0  0  0  0  0  0  0  0  0
   -0.5234   -6.3293   33.4096 C   0  0  0  0  0  0  0  0  0  0  0  0
   -1.5763   -6.3405   34.3580 O   0  0  0  0  0  0  0  0  0  0  0  0
   -1.1106   -6.6185   35.6761 C   0  0  0  0  0  0  0  0  0  0  0  0
   -1.8816   -9.5200   31.6751 H   0  0  0  0  0  0  0  0  0  0  0  0
   -2.2591   -8.7012   33.2349 H   0  0  0  0  0  0  0  0  0  0  0  0
   -0.6072   -8.7757   32.5820 H   0  0  0  0  0  0  0  0  0  0  0  0
   -1.4837   -5.5538   31.6543 H   0  0  0  0  0  0  0  0  0  0  0  0
    0.2484   -7.7271   30.6599 H   0  0  0  0  0  0  0  0  0  0  0  0
    0.0249   -6.1397   30.0796 H   0  0  0  0  0  0  0  0  0  0  0  0
    2.2546   -6.2204   30.9066 H   0  0  0  0  0  0  0  0  0  0  0  0
    1.7440   -7.2134   32.2752 H   0  0  0  0  0  0  0  0  0  0  0  0
    2.5879   -6.4533   34.2653 H   0  0  0  0  0  0  0  0  0  0  0  0
    4.2233   -4.9539   35.8609 H   0  0  0  0  0  0  0  0  0  0  0  0
    5.0483   -2.8682   35.7831 H   0  0  0  0  0  0  0  0  0  0  0  0
    6.3325   -3.5690   34.7861 H   0  0  0  0  0  0  0  0  0  0  0  0
    5.3992   -2.7953   32.9415 H   0  0  0  0  0  0  0  0  0  0  0  0
    2.1671   -4.2867   29.6847 H   0  0  0  0  0  0  0  0  0  0  0  0
    0.5239   -4.3039   30.3667 H   0  0  0  0  0  0  0  0  0  0  0  0
    2.2168   -1.8290   30.0621 H   0  0  0  0  0  0  0  0  0  0  0  0
    0.7816   -2.2758   29.1618 H   0  0  0  0  0  0  0  0  0  0  0  0
    0.9746   -1.3980   32.0145 H   0  0  0  0  0  0  0  0  0  0  0  0
   -0.3523    1.0157   30.7195 H   0  0  0  0  0  0  0  0  0  0  0  0
   -0.6387    2.4797   28.7198 H   0  0  0  0  0  0  0  0  0  0  0  0
   -2.2827    1.1058   25.7828 H   0  0  0  0  0  0  0  0  0  0  0  0
   -1.1044    2.2915   26.1460 H   0  0  0  0  0  0  0  0  0  0  0  0
   -2.0547   -2.1950   28.4207 H   0  0  0  0  0  0  0  0  0  0  0  0
   -0.3452   -4.1974   32.9802 H   0  0  0  0  0  0  0  0  0  0  0  0
    0.4181   -4.6492   34.4567 H   0  0  0  0  0  0  0  0  0  0  0  0
    0.1350   -7.1625   33.6833 H   0  0  0  0  0  0  0  0  0  0  0  0
   -0.0604   -6.3508   35.8291 H   0  0  0  0  0  0  0  0  0  0  0  0
   -1.2416   -7.6846   35.8792 H   0  0  0  0  0  0  0  0  0  0  0  0
   -1.7066   -6.0344   36.3770 H   0  0  0  0  0  0  0  0  0  0  0  0
  1  2  1  0
  2  3  1  0
  3  4  1  0
  4  5  1  0
  5  6  1  0
  6  7  1  0
  7  8  2  0
  8  9  1  0
  9 10  1  0
 10 11  1  0
 11 12  1  0
 12 13  1  0
 13 14  2  0
 14 15  1  0
 15 16  1  0
 16 17  1  0
 17 18  1  0
 18 19  2  0
 18 20  2  0
 18 21  1  0
 21 22  2  0
 22 23  1  0
 23 24  2  0
 24 25  1  0
 24 26  1  0
 26 27  2  0
  6 28  1  0
 28 29  1  0
 29 30  1  0
 30 31  1  0
 29  3  1  0
 14  6  1  0
 27 21  1  0
 12  8  1  0
  1 32  1  0
  1 33  1  0
  1 34  1  0
  3 35  1  0
  4 36  1  0
  4 37  1  0
  5 38  1  0
  5 39  1  0
  7 40  1  0
  9 41  1  0
 10 42  1  0
 10 43  1  0
 11 44  1  0
 15 45  1  0
 15 46  1  0
 16 47  1  0
 16 48  1  0
 17 49  1  0
 22 50  1  0
 23 51  1  0
 25 52  1  0
 25 53  1  0
 27 54  1  0
 28 55  1  0
 28 56  1  0
 29 57  1  0
 31 58  1  0
 31 59  1  0
 31 60  1  0
M  END
>  <Energy>  (72) 
-46.799527606467571

>  <compound_id>  (72) 
215

>  <target_id>  (72) 
1

>  <reference_id>  (72) 
129

>  <inspiration_ids>  (72) 
[198, 129]

>  <energy_score>  (72) 
-76.14908656589202

>  <distance_score>  (72) 
1.5019351573671074

>  <path>  (72) 
/opt/xchem-fragalysis-2/maxwin/BulkDock/SCRATCH/505737/C215-P129/C215-P129.minimised.mol

>  <scratch_subdir>  (72) 
/opt/xchem-fragalysis-2/maxwin/BulkDock/SCRATCH/505737/C215-P129

>  <fragmenstein_runtime>  (72) 
6.101668357849121

>  <fragmenstein_outcome>  (72) 
too moved

>  <fragmenstein_mode>  (72) 
expansion

>  <fragmenstein_error>  (72) 


$$$$
C215-P198
     RDKit          2D

  0  0  0  0  0  0  0  0  0  0999 V2000
M  END
>  <compound_id>  (73) 
215

>  <target_id>  (73) 
1

>  <reference_id>  (73) 
198

>  <inspiration_ids>  (73) 
[198, 130]

>  <energy_score>  (73) 
nan

>  <distance_score>  (73) 
nan

>  <path>  (73) 
/opt/xchem-fragalysis-2/maxwin/BulkDock/SCRATCH/505737/C215-P198/C215-P198.minimised.mol

>  <scratch_subdir>  (73) 
/opt/xchem-fragalysis-2/maxwin/BulkDock/SCRATCH/505737/C215-P198

>  <fragmenstein_runtime>  (73) 
0.41536450386047363

>  <fragmenstein_outcome>  (73) 
too distant

>  <fragmenstein_mode>  (73) 
expansion

>  <fragmenstein_error>  (73) 
DistanceError: hit0+hit1

$$$$
C218-P198
     RDKit          3D

 54 56  0  0  0  0  0  0  0  0999 V2000
   -1.7682    1.2027   26.9024 N   0  0  0  0  0  0  0  0  0  0  0  0
   -1.5066    0.3949   27.9975 C   0  0  0  0  0  0  0  0  0  0  0  0
   -0.9733    0.9047   29.1684 C   0  0  0  0  0  0  0  0  0  0  0  0
   -0.8430    0.0588   30.2694 C   0  0  0  0  0  0  0  0  0  0  0  0
   -1.2386   -1.2694   30.1441 C   0  0  0  0  0  0  0  0  0  0  0  0
   -1.2554   -2.3705   31.5089 S   0  0  0  0  0  0  0  0  0  0  0  0
   -1.2361   -1.5498   32.6988 O   0  0  0  0  0  0  0  0  0  0  0  0
   -2.2915   -3.3605   31.3148 O   0  0  0  0  0  0  0  0  0  0  0  0
    0.2360   -3.1322   31.3903 N   0  0  0  0  0  0  0  0  0  0  0  0
    0.4581   -4.1361   30.3405 C   0  0  0  0  0  0  0  0  0  0  0  0
    1.3582   -5.2725   30.8309 C   0  0  0  0  0  0  0  0  0  0  0  0
    0.5793   -6.2485   31.7070 C   0  0  0  0  0  0  0  0  0  0  0  0
   -0.4105   -6.8703   31.1468 N   0  0  0  0  0  0  0  0  0  0  0  0
   -1.2206   -7.6234   31.9409 C   0  0  0  0  0  0  0  0  0  0  0  0
   -2.2034   -8.3225   31.2889 O   0  0  0  0  0  0  0  0  0  0  0  0
   -1.1275   -7.6669   33.2677 C   0  0  0  0  0  0  0  0  0  0  0  0
    0.0598   -7.0894   33.8814 C   0  0  0  0  0  0  0  0  0  0  0  0
    0.2758   -7.2580   35.0791 O   0  0  0  0  0  0  0  0  0  0  0  0
    0.9307   -6.4499   33.0222 N   0  0  0  0  0  0  0  0  0  0  0  0
    2.1473   -5.9740   33.6609 C   0  0  0  0  0  0  0  0  0  0  0  0
    1.8598   -4.6141   34.2661 C   0  0  0  0  0  0  0  0  0  0  0  0
    0.9154   -3.9916   33.9735 O   0  0  0  0  0  0  0  0  0  0  0  0
    3.0598   -4.2511   35.1823 N   0  0  0  0  0  0  0  0  0  0  0  0
    3.3879   -3.0185   35.8459 C   0  0  0  0  0  0  0  0  0  0  0  0
    3.2097   -1.9498   34.8041 C   0  0  0  0  0  0  0  0  0  0  0  0
    1.9550   -1.3541   34.6521 C   0  0  0  0  0  0  0  0  0  0  0  0
    1.6629   -0.6196   33.5083 C   0  0  0  0  0  0  0  0  0  0  0  0
    2.6123   -0.4651   32.5057 C   0  0  0  0  0  0  0  0  0  0  0  0
    3.8795   -1.0093   32.6704 C   0  0  0  0  0  0  0  0  0  0  0  0
    4.1810   -1.7445   33.8168 C   0  0  0  0  0  0  0  0  0  0  0  0
   -1.7405   -1.6966   28.9377 C   0  0  0  0  0  0  0  0  0  0  0  0
   -1.8777   -0.8842   27.8705 N   0  0  0  0  0  0  0  0  0  0  0  0
   -0.9630    1.7421   26.6219 H   0  0  0  0  0  0  0  0  0  0  0  0
   -2.1110    0.5577   26.1893 H   0  0  0  0  0  0  0  0  0  0  0  0
   -0.7045    1.9533   29.2343 H   0  0  0  0  0  0  0  0  0  0  0  0
   -0.4677    0.4456   31.2111 H   0  0  0  0  0  0  0  0  0  0  0  0
    0.6493   -3.2440   32.3287 H   0  0  0  0  0  0  0  0  0  0  0  0
   -0.4863   -4.5281   29.9554 H   0  0  0  0  0  0  0  0  0  0  0  0
    0.9565   -3.6278   29.5069 H   0  0  0  0  0  0  0  0  0  0  0  0
    2.2356   -4.8566   31.3262 H   0  0  0  0  0  0  0  0  0  0  0  0
    1.7121   -5.8373   29.9604 H   0  0  0  0  0  0  0  0  0  0  0  0
   -2.7707   -8.7850   31.9400 H   0  0  0  0  0  0  0  0  0  0  0  0
   -1.8069   -8.1928   33.9177 H   0  0  0  0  0  0  0  0  0  0  0  0
    2.9542   -5.8703   32.9361 H   0  0  0  0  0  0  0  0  0  0  0  0
    2.4734   -6.6719   34.4398 H   0  0  0  0  0  0  0  0  0  0  0  0
    3.7453   -4.9940   35.1517 H   0  0  0  0  0  0  0  0  0  0  0  0
    2.7073   -2.8795   36.6912 H   0  0  0  0  0  0  0  0  0  0  0  0
    4.4170   -3.0663   36.2134 H   0  0  0  0  0  0  0  0  0  0  0  0
    1.1624   -1.5280   35.3782 H   0  0  0  0  0  0  0  0  0  0  0  0
    0.6792   -0.1718   33.4027 H   0  0  0  0  0  0  0  0  0  0  0  0
    2.3721    0.1017   31.6106 H   0  0  0  0  0  0  0  0  0  0  0  0
    4.6312   -0.8737   31.8971 H   0  0  0  0  0  0  0  0  0  0  0  0
    5.1586   -2.2123   33.9031 H   0  0  0  0  0  0  0  0  0  0  0  0
   -2.0804   -2.7127   28.7818 H   0  0  0  0  0  0  0  0  0  0  0  0
  1  2  1  0
  2  3  2  0
  3  4  1  0
  4  5  2  0
  5  6  1  0
  6  7  2  0
  6  8  2  0
  6  9  1  0
  9 10  1  0
 10 11  1  0
 11 12  1  0
 12 13  2  0
 13 14  1  0
 14 15  1  0
 14 16  2  0
 16 17  1  0
 17 18  2  0
 17 19  1  0
 19 20  1  0
 20 21  1  0
 21 22  2  0
 21 23  1  0
 23 24  1  0
 24 25  1  0
 25 26  2  0
 26 27  1  0
 27 28  2  0
 28 29  1  0
 29 30  2  0
  5 31  1  0
 31 32  2  0
 32  2  1  0
 19 12  1  0
 30 25  1  0
  1 33  1  0
  1 34  1  0
  3 35  1  0
  4 36  1  0
  9 37  1  0
 10 38  1  0
 10 39  1  0
 11 40  1  0
 11 41  1  0
 15 42  1  0
 16 43  1  0
 20 44  1  0
 20 45  1  0
 23 46  1  0
 24 47  1  0
 24 48  1  0
 26 49  1  0
 27 50  1  0
 28 51  1  0
 29 52  1  0
 30 53  1  0
 31 54  1  0
M  END
>  <Energy>  (74) 
-141.40646663324736

>  <compound_id>  (74) 
218

>  <target_id>  (74) 
1

>  <reference_id>  (74) 
198

>  <inspiration_ids>  (74) 
[198, 133]

>  <energy_score>  (74) 
-58.20048244814987

>  <distance_score>  (74) 
1.4052436531885948

>  <path>  (74) 
/opt/xchem-fragalysis-2/maxwin/BulkDock/SCRATCH/505737/C218-P198/C218-P198.minimised.mol

>  <scratch_subdir>  (74) 
/opt/xchem-fragalysis-2/maxwin/BulkDock/SCRATCH/505737/C218-P198

>  <fragmenstein_runtime>  (74) 
8.176642179489136

>  <fragmenstein_outcome>  (74) 
too moved

>  <fragmenstein_mode>  (74) 
expansion

>  <fragmenstein_error>  (74) 


$$$$
C218-P133
     RDKit          3D

 54 56  0  0  0  0  0  0  0  0999 V2000
   -1.5074    1.2049   26.9081 N   0  0  0  0  0  0  0  0  0  0  0  0
   -1.2507    0.3737   27.9865 C   0  0  0  0  0  0  0  0  0  0  0  0
   -0.6890    0.8494   29.1574 C   0  0  0  0  0  0  0  0  0  0  0  0
   -0.5869   -0.0098   30.2531 C   0  0  0  0  0  0  0  0  0  0  0  0
   -1.0250   -1.3230   30.1202 C   0  0  0  0  0  0  0  0  0  0  0  0
   -1.0906   -2.4331   31.4781 S   0  0  0  0  0  0  0  0  0  0  0  0
   -1.0010   -1.6424   32.6822 O   0  0  0  0  0  0  0  0  0  0  0  0
   -2.2028   -3.3403   31.3000 O   0  0  0  0  0  0  0  0  0  0  0  0
    0.3175   -3.3139   31.3180 N   0  0  0  0  0  0  0  0  0  0  0  0
    0.5111   -4.2076   30.1747 C   0  0  0  0  0  0  0  0  0  0  0  0
    1.2755   -5.4661   30.5816 C   0  0  0  0  0  0  0  0  0  0  0  0
    0.4886   -6.2908   31.5949 C   0  0  0  0  0  0  0  0  0  0  0  0
   -0.5263   -6.9545   31.1426 N   0  0  0  0  0  0  0  0  0  0  0  0
   -1.2897   -7.6446   32.0351 C   0  0  0  0  0  0  0  0  0  0  0  0
   -2.2534   -8.4379   31.4690 O   0  0  0  0  0  0  0  0  0  0  0  0
   -1.1488   -7.5692   33.3594 C   0  0  0  0  0  0  0  0  0  0  0  0
    0.0065   -6.8379   33.8763 C   0  0  0  0  0  0  0  0  0  0  0  0
    0.2479   -6.8105   35.0811 O   0  0  0  0  0  0  0  0  0  0  0  0
    0.8484   -6.3050   32.9231 N   0  0  0  0  0  0  0  0  0  0  0  0
    2.1745   -6.0033   33.4075 C   0  0  0  0  0  0  0  0  0  0  0  0
    2.3743   -4.5488   33.7393 C   0  0  0  0  0  0  0  0  0  0  0  0
    2.5363   -3.7585   32.8916 O   0  0  0  0  0  0  0  0  0  0  0  0
    2.4218   -4.3921   35.2854 N   0  0  0  0  0  0  0  0  0  0  0  0
    2.5837   -3.2151   36.1023 C   0  0  0  0  0  0  0  0  0  0  0  0
    2.6642   -2.0112   35.2151 C   0  0  0  0  0  0  0  0  0  0  0  0
    1.4817   -1.4183   34.7734 C   0  0  0  0  0  0  0  0  0  0  0  0
    1.5161   -0.4823   33.7449 C   0  0  0  0  0  0  0  0  0  0  0  0
    2.7126   -0.1531   33.1209 C   0  0  0  0  0  0  0  0  0  0  0  0
    3.8987   -0.7125   33.5761 C   0  0  0  0  0  0  0  0  0  0  0  0
    3.8793   -1.6259   34.6303 C   0  0  0  0  0  0  0  0  0  0  0  0
   -1.5259   -1.7224   28.9061 C   0  0  0  0  0  0  0  0  0  0  0  0
   -1.6534   -0.8932   27.8511 N   0  0  0  0  0  0  0  0  0  0  0  0
   -0.6925    1.7219   26.6136 H   0  0  0  0  0  0  0  0  0  0  0  0
   -1.8847    0.5889   26.1871 H   0  0  0  0  0  0  0  0  0  0  0  0
   -0.3808    1.8867   29.2310 H   0  0  0  0  0  0  0  0  0  0  0  0
   -0.1968    0.3603   31.1947 H   0  0  0  0  0  0  0  0  0  0  0  0
    1.1253   -3.0171   31.8859 H   0  0  0  0  0  0  0  0  0  0  0  0
   -0.4477   -4.4925   29.7333 H   0  0  0  0  0  0  0  0  0  0  0  0
    1.0838   -3.6726   29.4093 H   0  0  0  0  0  0  0  0  0  0  0  0
    2.2709   -5.1998   30.9320 H   0  0  0  0  0  0  0  0  0  0  0  0
    1.4233   -6.0901   29.6923 H   0  0  0  0  0  0  0  0  0  0  0  0
   -2.8108   -8.8481   32.1607 H   0  0  0  0  0  0  0  0  0  0  0  0
   -1.7620   -8.0931   34.0780 H   0  0  0  0  0  0  0  0  0  0  0  0
    2.8907   -6.2239   32.6267 H   0  0  0  0  0  0  0  0  0  0  0  0
    2.4558   -6.6503   34.2458 H   0  0  0  0  0  0  0  0  0  0  0  0
    2.1517   -5.2686   35.7243 H   0  0  0  0  0  0  0  0  0  0  0  0
    1.7341   -3.1545   36.7903 H   0  0  0  0  0  0  0  0  0  0  0  0
    3.4916   -3.3364   36.7016 H   0  0  0  0  0  0  0  0  0  0  0  0
    0.5182   -1.7147   35.1834 H   0  0  0  0  0  0  0  0  0  0  0  0
    0.5949   -0.0036   33.4295 H   0  0  0  0  0  0  0  0  0  0  0  0
    2.7248    0.5643   32.3056 H   0  0  0  0  0  0  0  0  0  0  0  0
    4.8407   -0.4501   33.1028 H   0  0  0  0  0  0  0  0  0  0  0  0
    4.8083   -2.1003   34.9364 H   0  0  0  0  0  0  0  0  0  0  0  0
   -1.8860   -2.7284   28.7377 H   0  0  0  0  0  0  0  0  0  0  0  0
  1  2  1  0
  2  3  2  0
  3  4  1  0
  4  5  2  0
  5  6  1  0
  6  7  2  0
  6  8  2  0
  6  9  1  0
  9 10  1  0
 10 11  1  0
 11 12  1  0
 12 13  2  0
 13 14  1  0
 14 15  1  0
 14 16  2  0
 16 17  1  0
 17 18  2  0
 17 19  1  0
 19 20  1  0
 20 21  1  0
 21 22  2  0
 21 23  1  0
 23 24  1  0
 24 25  1  0
 25 26  2  0
 26 27  1  0
 27 28  2  0
 28 29  1  0
 29 30  2  0
  5 31  1  0
 31 32  2  0
 32  2  1  0
 19 12  1  0
 30 25  1  0
  1 33  1  0
  1 34  1  0
  3 35  1  0
  4 36  1  0
  9 37  1  0
 10 38  1  0
 10 39  1  0
 11 40  1  0
 11 41  1  0
 15 42  1  0
 16 43  1  0
 20 44  1  0
 20 45  1  0
 23 46  1  0
 24 47  1  0
 24 48  1  0
 26 49  1  0
 27 50  1  0
 28 51  1  0
 29 52  1  0
 30 53  1  0
 31 54  1  0
M  END
>  <Energy>  (75) 
-139.82303213006213

>  <compound_id>  (75) 
218

>  <target_id>  (75) 
1

>  <reference_id>  (75) 
133

>  <inspiration_ids>  (75) 
[198, 133]

>  <energy_score>  (75) 
-56.61704794496217

>  <distance_score>  (75) 
1.4528918133615067

>  <path>  (75) 
/opt/xchem-fragalysis-2/maxwin/BulkDock/SCRATCH/505737/C218-P133/C218-P133.minimised.mol

>  <scratch_subdir>  (75) 
/opt/xchem-fragalysis-2/maxwin/BulkDock/SCRATCH/505737/C218-P133

>  <fragmenstein_runtime>  (75) 
8.218780755996704

>  <fragmenstein_outcome>  (75) 
too moved

>  <fragmenstein_mode>  (75) 
expansion

>  <fragmenstein_error>  (75) 


$$$$
C219-P198
     RDKit          3D

 52 54  0  0  0  0  0  0  0  0999 V2000
   -2.1736   -1.7681   33.0110 O   0  0  0  0  0  0  0  0  0  0  0  0
   -0.7685   -1.8855   32.6923 C   0  0  0  0  0  0  0  0  0  0  0  0
   -0.5665   -2.3050   31.1856 C   0  0  0  0  0  0  0  0  0  0  0  0
   -1.7676   -3.0550   30.9011 O   0  0  0  0  0  0  0  0  0  0  0  0
    0.6191   -3.1780   31.0933 N   0  0  0  0  0  0  0  0  0  0  0  0
    0.5306   -4.2865   30.1218 C   0  0  0  0  0  0  0  0  0  0  0  0
    1.3473   -5.5002   30.5595 C   0  0  0  0  0  0  0  0  0  0  0  0
    0.5675   -6.2929   31.5621 C   0  0  0  0  0  0  0  0  0  0  0  0
    0.8045   -6.0877   32.8719 N   0  0  0  0  0  0  0  0  0  0  0  0
   -0.0368   -6.6947   33.7260 C   0  0  0  0  0  0  0  0  0  0  0  0
   -1.0572   -7.5191   33.3228 C   0  0  0  0  0  0  0  0  0  0  0  0
   -1.1565   -7.7065   31.9690 C   0  0  0  0  0  0  0  0  0  0  0  0
   -2.0990   -8.5072   31.4106 O   0  0  0  0  0  0  0  0  0  0  0  0
   -0.3703   -7.1172   31.0693 N   0  0  0  0  0  0  0  0  0  0  0  0
    1.9144   -2.4911   30.9641 C   0  0  0  0  0  0  0  0  0  0  0  0
    1.8998   -1.0051   31.2719 C   0  0  0  0  0  0  0  0  0  0  0  0
    0.8421   -0.2612   30.4609 C   0  0  0  0  0  0  0  0  0  0  0  0
   -0.4689   -1.0748   30.2052 C   0  0  0  0  0  0  0  0  0  0  0  0
   -1.6681   -0.1068   30.3723 C   0  0  0  0  0  0  0  0  0  0  0  0
   -1.7384    0.9100   29.2334 C   0  0  0  0  0  0  0  0  0  0  0  0
   -1.8051    0.1894   27.9045 C   0  0  0  0  0  0  0  0  0  0  0  0
   -2.0541    1.0782   26.7853 N   0  0  0  0  0  0  0  0  0  0  0  0
   -0.9793    2.0507   26.6939 O   0  0  0  0  0  0  0  0  0  0  0  0
   -0.5849   -0.5419   27.7156 N   0  0  0  0  0  0  0  0  0  0  0  0
   -0.4812   -1.5925   28.7320 C   0  0  0  0  0  0  0  0  0  0  0  0
   -2.3905   -2.5624   33.5464 H   0  0  0  0  0  0  0  0  0  0  0  0
   -0.3581   -2.6493   33.3648 H   0  0  0  0  0  0  0  0  0  0  0  0
   -0.2937   -0.9355   32.9438 H   0  0  0  0  0  0  0  0  0  0  0  0
   -2.4696   -2.5512   31.3585 H   0  0  0  0  0  0  0  0  0  0  0  0
   -0.4982   -4.6136   29.9477 H   0  0  0  0  0  0  0  0  0  0  0  0
    0.9006   -3.9813   29.1378 H   0  0  0  0  0  0  0  0  0  0  0  0
    2.3280   -5.2263   30.9610 H   0  0  0  0  0  0  0  0  0  0  0  0
    1.5355   -6.1315   29.6833 H   0  0  0  0  0  0  0  0  0  0  0  0
    0.1341   -6.4886   34.7786 H   0  0  0  0  0  0  0  0  0  0  0  0
   -1.7137   -7.9861   34.0407 H   0  0  0  0  0  0  0  0  0  0  0  0
   -2.6545   -8.9039   32.1065 H   0  0  0  0  0  0  0  0  0  0  0  0
    2.3220   -2.5987   29.9502 H   0  0  0  0  0  0  0  0  0  0  0  0
    2.6333   -2.9784   31.6333 H   0  0  0  0  0  0  0  0  0  0  0  0
    2.8858   -0.5743   31.0577 H   0  0  0  0  0  0  0  0  0  0  0  0
    1.7449   -0.8470   32.3442 H   0  0  0  0  0  0  0  0  0  0  0  0
    1.2926    0.0491   29.5099 H   0  0  0  0  0  0  0  0  0  0  0  0
    0.6283    0.6731   30.9957 H   0  0  0  0  0  0  0  0  0  0  0  0
   -2.6083   -0.6663   30.3854 H   0  0  0  0  0  0  0  0  0  0  0  0
   -1.6146    0.4224   31.3302 H   0  0  0  0  0  0  0  0  0  0  0  0
   -2.6300    1.5189   29.3384 H   0  0  0  0  0  0  0  0  0  0  0  0
   -0.8824    1.5949   29.2803 H   0  0  0  0  0  0  0  0  0  0  0  0
   -2.6162   -0.5399   27.8993 H   0  0  0  0  0  0  0  0  0  0  0  0
   -1.9624    0.5130   25.9445 H   0  0  0  0  0  0  0  0  0  0  0  0
   -1.4586    2.8854   26.8697 H   0  0  0  0  0  0  0  0  0  0  0  0
   -0.6787   -1.0135   26.8170 H   0  0  0  0  0  0  0  0  0  0  0  0
    0.4579   -2.0996   28.5074 H   0  0  0  0  0  0  0  0  0  0  0  0
   -1.2855   -2.3220   28.5777 H   0  0  0  0  0  0  0  0  0  0  0  0
  1  2  1  0
  2  3  1  0
  3  4  1  0
  3  5  1  0
  5  6  1  0
  6  7  1  0
  7  8  1  0
  8  9  2  0
  9 10  1  0
 10 11  2  0
 11 12  1  0
 12 13  1  0
 12 14  2  0
  5 15  1  0
 15 16  1  0
 16 17  1  0
 17 18  1  0
 18 19  1  0
 19 20  1  0
 20 21  1  0
 21 22  1  0
 22 23  1  0
 21 24  1  0
 24 25  1  0
 18  3  1  0
 14  8  1  0
 25 18  1  0
  1 26  1  0
  2 27  1  0
  2 28  1  0
  4 29  1  0
  6 30  1  0
  6 31  1  0
  7 32  1  0
  7 33  1  0
 10 34  1  0
 11 35  1  0
 13 36  1  0
 15 37  1  0
 15 38  1  0
 16 39  1  0
 16 40  1  0
 17 41  1  0
 17 42  1  0
 19 43  1  0
 19 44  1  0
 20 45  1  0
 20 46  1  0
 21 47  1  0
 22 48  1  0
 23 49  1  0
 24 50  1  0
 25 51  1  0
 25 52  1  0
M  END
>  <Energy>  (76) 
-0.75654231366858049

>  <compound_id>  (76) 
219

>  <target_id>  (76) 
1

>  <reference_id>  (76) 
198

>  <inspiration_ids>  (76) 
[198, 134]

>  <energy_score>  (76) 
-92.53991036894206

>  <distance_score>  (76) 
0.9832132989883243

>  <path>  (76) 
/opt/xchem-fragalysis-2/maxwin/BulkDock/SCRATCH/505737/C219-P198/C219-P198.minimised.mol

>  <scratch_subdir>  (76) 
/opt/xchem-fragalysis-2/maxwin/BulkDock/SCRATCH/505737/C219-P198

>  <fragmenstein_runtime>  (76) 
2.4950249195098877

>  <fragmenstein_outcome>  (76) 
acceptable

>  <fragmenstein_mode>  (76) 
expansion

>  <fragmenstein_error>  (76) 


$$$$
C219-P134
     RDKit          3D

 52 54  0  0  0  0  0  0  0  0999 V2000
   -0.9217   -2.8777   33.4849 O   0  0  0  0  0  0  0  0  0  0  0  0
   -0.5603   -1.7291   32.6933 C   0  0  0  0  0  0  0  0  0  0  0  0
   -0.4147   -2.1811   31.1936 C   0  0  0  0  0  0  0  0  0  0  0  0
   -1.6555   -2.8853   30.9952 O   0  0  0  0  0  0  0  0  0  0  0  0
    0.7137   -3.1187   31.0710 N   0  0  0  0  0  0  0  0  0  0  0  0
    0.5175   -4.2274   30.1187 C   0  0  0  0  0  0  0  0  0  0  0  0
    1.2739   -5.4692   30.5555 C   0  0  0  0  0  0  0  0  0  0  0  0
    0.4863   -6.2299   31.5753 C   0  0  0  0  0  0  0  0  0  0  0  0
    0.7724   -6.0508   32.8778 N   0  0  0  0  0  0  0  0  0  0  0  0
   -0.0510   -6.6547   33.7527 C   0  0  0  0  0  0  0  0  0  0  0  0
   -1.0850   -7.4738   33.3744 C   0  0  0  0  0  0  0  0  0  0  0  0
   -1.2274   -7.6417   32.0223 C   0  0  0  0  0  0  0  0  0  0  0  0
   -2.1742   -8.4491   31.4838 O   0  0  0  0  0  0  0  0  0  0  0  0
   -0.4752   -7.0369   31.1026 N   0  0  0  0  0  0  0  0  0  0  0  0
    2.0374   -2.5021   30.8725 C   0  0  0  0  0  0  0  0  0  0  0  0
    2.1296   -1.0060   31.1245 C   0  0  0  0  0  0  0  0  0  0  0  0
    1.0392   -0.2117   30.4111 C   0  0  0  0  0  0  0  0  0  0  0  0
   -0.2915   -0.9928   30.1843 C   0  0  0  0  0  0  0  0  0  0  0  0
   -1.4664   -0.0027   30.3459 C   0  0  0  0  0  0  0  0  0  0  0  0
   -1.5258    0.9902   29.1897 C   0  0  0  0  0  0  0  0  0  0  0  0
   -1.6238    0.2534   27.8808 C   0  0  0  0  0  0  0  0  0  0  0  0
   -1.8856    1.1530   26.7756 N   0  0  0  0  0  0  0  0  0  0  0  0
   -0.7803    2.0803   26.6256 O   0  0  0  0  0  0  0  0  0  0  0  0
   -0.4208   -0.5016   27.6900 N   0  0  0  0  0  0  0  0  0  0  0  0
   -0.3345   -1.5373   28.7240 C   0  0  0  0  0  0  0  0  0  0  0  0
   -1.0245   -2.5853   34.4055 H   0  0  0  0  0  0  0  0  0  0  0  0
    0.3392   -1.2899   33.1220 H   0  0  0  0  0  0  0  0  0  0  0  0
   -1.3878   -1.0243   32.8126 H   0  0  0  0  0  0  0  0  0  0  0  0
   -1.6519   -3.4797   31.7770 H   0  0  0  0  0  0  0  0  0  0  0  0
   -0.5325   -4.4982   29.9792 H   0  0  0  0  0  0  0  0  0  0  0  0
    0.8743   -3.9631   29.1184 H   0  0  0  0  0  0  0  0  0  0  0  0
    2.2674   -5.2279   30.9396 H   0  0  0  0  0  0  0  0  0  0  0  0
    1.4214   -6.1047   29.6762 H   0  0  0  0  0  0  0  0  0  0  0  0
    0.1514   -6.4587   34.8017 H   0  0  0  0  0  0  0  0  0  0  0  0
   -1.7123   -7.9560   34.1095 H   0  0  0  0  0  0  0  0  0  0  0  0
   -2.7242   -8.8377   32.1902 H   0  0  0  0  0  0  0  0  0  0  0  0
    2.4020   -2.6680   29.8502 H   0  0  0  0  0  0  0  0  0  0  0  0
    2.7547   -3.0077   31.5301 H   0  0  0  0  0  0  0  0  0  0  0  0
    3.1114   -0.6403   30.7980 H   0  0  0  0  0  0  0  0  0  0  0  0
    2.1009   -0.8045   32.1999 H   0  0  0  0  0  0  0  0  0  0  0  0
    1.4420    0.1490   29.4567 H   0  0  0  0  0  0  0  0  0  0  0  0
    0.8632    0.6939   31.0064 H   0  0  0  0  0  0  0  0  0  0  0  0
   -2.4172   -0.5438   30.3937 H   0  0  0  0  0  0  0  0  0  0  0  0
   -1.3788    0.5441   31.2894 H   0  0  0  0  0  0  0  0  0  0  0  0
   -2.4058    1.6160   29.2734 H   0  0  0  0  0  0  0  0  0  0  0  0
   -0.6578    1.6615   29.2183 H   0  0  0  0  0  0  0  0  0  0  0  0
   -2.4403   -0.4673   27.8969 H   0  0  0  0  0  0  0  0  0  0  0  0
   -1.8945    0.5973   25.9256 H   0  0  0  0  0  0  0  0  0  0  0  0
   -1.2278    2.9346   26.7889 H   0  0  0  0  0  0  0  0  0  0  0  0
   -0.5584   -0.9928   26.8101 H   0  0  0  0  0  0  0  0  0  0  0  0
    0.5901   -2.0668   28.4927 H   0  0  0  0  0  0  0  0  0  0  0  0
   -1.1579   -2.2507   28.5941 H   0  0  0  0  0  0  0  0  0  0  0  0
  1  2  1  0
  2  3  1  0
  3  4  1  0
  3  5  1  0
  5  6  1  0
  6  7  1  0
  7  8  1  0
  8  9  2  0
  9 10  1  0
 10 11  2  0
 11 12  1  0
 12 13  1  0
 12 14  2  0
  5 15  1  0
 15 16  1  0
 16 17  1  0
 17 18  1  0
 18 19  1  0
 19 20  1  0
 20 21  1  0
 21 22  1  0
 22 23  1  0
 21 24  1  0
 24 25  1  0
 18  3  1  0
 14  8  1  0
 25 18  1  0
  1 26  1  0
  2 27  1  0
  2 28  1  0
  4 29  1  0
  6 30  1  0
  6 31  1  0
  7 32  1  0
  7 33  1  0
 10 34  1  0
 11 35  1  0
 13 36  1  0
 15 37  1  0
 15 38  1  0
 16 39  1  0
 16 40  1  0
 17 41  1  0
 17 42  1  0
 19 43  1  0
 19 44  1  0
 20 45  1  0
 20 46  1  0
 21 47  1  0
 22 48  1  0
 23 49  1  0
 24 50  1  0
 25 51  1  0
 25 52  1  0
M  END
>  <Energy>  (77) 
-1.6485638881411031

>  <compound_id>  (77) 
219

>  <target_id>  (77) 
1

>  <reference_id>  (77) 
134

>  <inspiration_ids>  (77) 
[198, 134]

>  <energy_score>  (77) 
-93.43193194341256

>  <distance_score>  (77) 
1.0012163285309472

>  <path>  (77) 
/opt/xchem-fragalysis-2/maxwin/BulkDock/SCRATCH/505737/C219-P134/C219-P134.minimised.mol

>  <scratch_subdir>  (77) 
/opt/xchem-fragalysis-2/maxwin/BulkDock/SCRATCH/505737/C219-P134

>  <fragmenstein_runtime>  (77) 
1.8779430389404297

>  <fragmenstein_outcome>  (77) 
too moved

>  <fragmenstein_mode>  (77) 
expansion

>  <fragmenstein_error>  (77) 


$$$$
C220-P198
     RDKit          3D

 60 63  0  0  0  0  0  0  0  0999 V2000
   -2.0013    1.6867   26.6756 N   0  0  0  0  0  0  0  0  0  0  0  0
   -1.6504    0.8188   27.7035 C   0  0  0  0  0  0  0  0  0  0  0  0
   -0.9371    1.2568   28.8062 C   0  0  0  0  0  0  0  0  0  0  0  0
   -0.6764    0.3544   29.8348 C   0  0  0  0  0  0  0  0  0  0  0  0
   -1.1206   -0.9585   29.7037 C   0  0  0  0  0  0  0  0  0  0  0  0
   -0.9544   -2.1061   31.0166 S   0  0  0  0  0  0  0  0  0  0  0  0
   -0.8650   -1.3065   32.2180 O   0  0  0  0  0  0  0  0  0  0  0  0
   -1.9579   -3.1426   30.8821 O   0  0  0  0  0  0  0  0  0  0  0  0
    0.5540   -2.7664   30.7215 N   0  0  0  0  0  0  0  0  0  0  0  0
    0.8109   -3.6598   29.5935 C   0  0  0  0  0  0  0  0  0  0  0  0
    1.2202   -5.0779   30.0307 C   0  0  0  0  0  0  0  0  0  0  0  0
    0.0286   -5.8743   30.5936 C   0  0  0  0  0  0  0  0  0  0  0  0
    0.2230   -7.3889   30.5900 C   0  0  0  0  0  0  0  0  0  0  0  0
   -0.9342   -8.2393   30.8721 N   0  0  0  0  0  0  0  0  0  0  0  0
   -1.8275   -7.7079   31.8482 N   0  0  0  0  0  0  0  0  0  0  0  0
   -1.2239   -7.3031   33.1380 C   0  0  0  0  0  0  0  0  0  0  0  0
   -0.2409   -6.0884   33.1224 C   0  0  0  0  0  0  0  0  0  0  0  0
    1.2052   -6.5615   33.4510 C   0  0  0  0  0  0  0  0  0  0  0  0
    1.6948   -6.0655   34.8063 C   0  0  0  0  0  0  0  0  0  0  0  0
    1.1532   -4.6538   34.9978 C   0  0  0  0  0  0  0  0  0  0  0  0
    1.8234   -3.5363   34.1968 C   0  0  0  0  0  0  0  0  0  0  0  0
    1.3167   -2.2251   34.2301 C   0  0  0  0  0  0  0  0  0  0  0  0
    1.9649   -1.1547   33.6029 C   0  0  0  0  0  0  0  0  0  0  0  0
    3.1681   -1.3610   32.9526 C   0  0  0  0  0  0  0  0  0  0  0  0
    3.7127   -2.6385   32.9303 C   0  0  0  0  0  0  0  0  0  0  0  0
    3.0514   -3.7106   33.5421 C   0  0  0  0  0  0  0  0  0  0  0  0
   -0.5705   -4.9305   34.5907 S   0  0  0  0  0  0  0  0  0  0  0  0
   -1.1493   -5.6945   35.6859 O   0  0  0  0  0  0  0  0  0  0  0  0
   -1.1554   -3.6872   34.1392 O   0  0  0  0  0  0  0  0  0  0  0  0
   -0.2773   -5.2930   31.8839 N   0  0  0  0  0  0  0  0  0  0  0  0
   -1.7889   -1.3212   28.5596 C   0  0  0  0  0  0  0  0  0  0  0  0
   -2.0528   -0.4504   27.5617 N   0  0  0  0  0  0  0  0  0  0  0  0
   -2.5995    1.1331   26.0626 H   0  0  0  0  0  0  0  0  0  0  0  0
   -2.5167    2.4856   27.0401 H   0  0  0  0  0  0  0  0  0  0  0  0
   -0.6153    2.2906   28.8753 H   0  0  0  0  0  0  0  0  0  0  0  0
   -0.1496    0.6818   30.7263 H   0  0  0  0  0  0  0  0  0  0  0  0
    1.2024   -2.7196   31.5061 H   0  0  0  0  0  0  0  0  0  0  0  0
    1.6399   -3.2230   29.0242 H   0  0  0  0  0  0  0  0  0  0  0  0
   -0.0426   -3.7020   28.9102 H   0  0  0  0  0  0  0  0  0  0  0  0
    2.0461   -5.0300   30.7502 H   0  0  0  0  0  0  0  0  0  0  0  0
    1.6156   -5.5970   29.1497 H   0  0  0  0  0  0  0  0  0  0  0  0
   -0.7846   -5.6742   29.9057 H   0  0  0  0  0  0  0  0  0  0  0  0
    0.9813   -7.6280   31.3103 H   0  0  0  0  0  0  0  0  0  0  0  0
    0.6292   -7.7117   29.6298 H   0  0  0  0  0  0  0  0  0  0  0  0
   -0.6278   -9.2015   31.0586 H   0  0  0  0  0  0  0  0  0  0  0  0
   -2.6013   -8.3631   32.0362 H   0  0  0  0  0  0  0  0  0  0  0  0
   -2.0500   -7.0608   33.8041 H   0  0  0  0  0  0  0  0  0  0  0  0
   -0.7557   -8.1765   33.5947 H   0  0  0  0  0  0  0  0  0  0  0  0
    1.9199   -6.2342   32.6907 H   0  0  0  0  0  0  0  0  0  0  0  0
    1.2511   -7.6441   33.4809 H   0  0  0  0  0  0  0  0  0  0  0  0
    2.7830   -6.1351   34.8969 H   0  0  0  0  0  0  0  0  0  0  0  0
    1.2931   -6.7266   35.5867 H   0  0  0  0  0  0  0  0  0  0  0  0
    1.2026   -4.3821   36.0587 H   0  0  0  0  0  0  0  0  0  0  0  0
    0.3940   -1.9973   34.7658 H   0  0  0  0  0  0  0  0  0  0  0  0
    1.5199   -0.1632   33.6429 H   0  0  0  0  0  0  0  0  0  0  0  0
    3.6838   -0.5315   32.4767 H   0  0  0  0  0  0  0  0  0  0  0  0
    4.6697   -2.8036   32.4399 H   0  0  0  0  0  0  0  0  0  0  0  0
    3.5533   -4.6727   33.5121 H   0  0  0  0  0  0  0  0  0  0  0  0
   -1.1842   -4.8101   31.8338 H   0  0  0  0  0  0  0  0  0  0  0  0
   -2.1677   -2.3229   28.3999 H   0  0  0  0  0  0  0  0  0  0  0  0
  1  2  1  0
  2  3  2  0
  3  4  1  0
  4  5  2  0
  5  6  1  0
  6  7  2  0
  6  8  2  0
  6  9  1  0
  9 10  1  0
 10 11  1  0
 11 12  1  0
 12 13  1  0
 13 14  1  0
 14 15  1  0
 15 16  1  0
 16 17  1  0
 17 18  1  0
 18 19  1  0
 19 20  1  0
 20 21  1  0
 21 22  2  0
 22 23  1  0
 23 24  2  0
 24 25  1  0
 25 26  2  0
 20 27  1  0
 27 28  2  0
 27 29  2  0
 17 30  1  0
  5 31  1  0
 31 32  2  0
 32  2  1  0
 30 12  1  0
 27 17  1  0
 26 21  1  0
  1 33  1  0
  1 34  1  0
  3 35  1  0
  4 36  1  0
  9 37  1  0
 10 38  1  0
 10 39  1  0
 11 40  1  0
 11 41  1  0
 12 42  1  0
 13 43  1  0
 13 44  1  0
 14 45  1  0
 15 46  1  0
 16 47  1  0
 16 48  1  0
 18 49  1  0
 18 50  1  0
 19 51  1  0
 19 52  1  0
 20 53  1  0
 22 54  1  0
 23 55  1  0
 24 56  1  0
 25 57  1  0
 26 58  1  0
 30 59  1  0
 31 60  1  0
M  END
>  <Energy>  (78) 
134.54093963628941

>  <compound_id>  (78) 
220

>  <target_id>  (78) 
1

>  <reference_id>  (78) 
198

>  <inspiration_ids>  (78) 
[198, 136]

>  <energy_score>  (78) 
-85.17959398092177

>  <distance_score>  (78) 
1.7308450268168047

>  <path>  (78) 
/opt/xchem-fragalysis-2/maxwin/BulkDock/SCRATCH/505737/C220-P198/C220-P198.minimised.mol

>  <scratch_subdir>  (78) 
/opt/xchem-fragalysis-2/maxwin/BulkDock/SCRATCH/505737/C220-P198

>  <fragmenstein_runtime>  (78) 
10.104852676391602

>  <fragmenstein_outcome>  (78) 
too moved

>  <fragmenstein_mode>  (78) 
expansion

>  <fragmenstein_error>  (78) 


$$$$
C220-P136
     RDKit          3D

 60 63  0  0  0  0  0  0  0  0999 V2000
   -1.7227    1.7524   26.6915 N   0  0  0  0  0  0  0  0  0  0  0  0
   -1.4209    0.8647   27.7166 C   0  0  0  0  0  0  0  0  0  0  0  0
   -0.7525    1.2737   28.8555 C   0  0  0  0  0  0  0  0  0  0  0  0
   -0.5802    0.3598   29.8931 C   0  0  0  0  0  0  0  0  0  0  0  0
   -1.0577   -0.9381   29.7328 C   0  0  0  0  0  0  0  0  0  0  0  0
   -1.0581   -2.0737   31.0681 S   0  0  0  0  0  0  0  0  0  0  0  0
   -0.9197   -1.2652   32.2599 O   0  0  0  0  0  0  0  0  0  0  0  0
   -2.1583   -2.9996   30.9063 O   0  0  0  0  0  0  0  0  0  0  0  0
    0.3694   -2.9002   30.8135 N   0  0  0  0  0  0  0  0  0  0  0  0
    0.5162   -3.8595   29.7238 C   0  0  0  0  0  0  0  0  0  0  0  0
    1.1571   -5.1419   30.2591 C   0  0  0  0  0  0  0  0  0  0  0  0
    0.2020   -5.9206   31.2041 C   0  0  0  0  0  0  0  0  0  0  0  0
   -0.3633   -7.1632   30.4943 C   0  0  0  0  0  0  0  0  0  0  0  0
   -1.4957   -7.8367   31.1314 N   0  0  0  0  0  0  0  0  0  0  0  0
   -1.1234   -8.3710   32.4045 N   0  0  0  0  0  0  0  0  0  0  0  0
   -1.1868   -7.3224   33.4334 C   0  0  0  0  0  0  0  0  0  0  0  0
    0.0972   -6.4969   33.6112 C   0  0  0  0  0  0  0  0  0  0  0  0
    1.0097   -7.0638   34.7068 C   0  0  0  0  0  0  0  0  0  0  0  0
    1.9885   -5.9476   35.1069 C   0  0  0  0  0  0  0  0  0  0  0  0
    1.2997   -4.5565   35.0207 C   0  0  0  0  0  0  0  0  0  0  0  0
    1.9577   -3.4506   34.2006 C   0  0  0  0  0  0  0  0  0  0  0  0
    1.3630   -2.1744   34.1583 C   0  0  0  0  0  0  0  0  0  0  0  0
    1.9584   -1.0935   33.5008 C   0  0  0  0  0  0  0  0  0  0  0  0
    3.1862   -1.2547   32.8853 C   0  0  0  0  0  0  0  0  0  0  0  0
    3.8082   -2.4964   32.9309 C   0  0  0  0  0  0  0  0  0  0  0  0
    3.2048   -3.5807   33.5791 C   0  0  0  0  0  0  0  0  0  0  0  0
   -0.3721   -4.9165   34.4661 S   0  0  0  0  0  0  0  0  0  0  0  0
   -1.1419   -5.2104   35.6600 O   0  0  0  0  0  0  0  0  0  0  0  0
   -0.8286   -3.9637   33.4818 O   0  0  0  0  0  0  0  0  0  0  0  0
    0.9682   -6.3328   32.3864 N   0  0  0  0  0  0  0  0  0  0  0  0
   -1.6428   -1.2817   28.5410 C   0  0  0  0  0  0  0  0  0  0  0  0
   -1.8312   -0.3955   27.5413 N   0  0  0  0  0  0  0  0  0  0  0  0
   -2.2937    1.2160   26.0384 H   0  0  0  0  0  0  0  0  0  0  0  0
   -2.2547    2.5445   27.0463 H   0  0  0  0  0  0  0  0  0  0  0  0
   -0.4109    2.2990   28.9506 H   0  0  0  0  0  0  0  0  0  0  0  0
   -0.1066    0.6743   30.8184 H   0  0  0  0  0  0  0  0  0  0  0  0
    1.1298   -2.6840   31.4558 H   0  0  0  0  0  0  0  0  0  0  0  0
    1.1719   -3.4161   28.9667 H   0  0  0  0  0  0  0  0  0  0  0  0
   -0.4387   -4.0863   29.2414 H   0  0  0  0  0  0  0  0  0  0  0  0
    2.0893   -4.8591   30.7659 H   0  0  0  0  0  0  0  0  0  0  0  0
    1.4652   -5.7751   29.4192 H   0  0  0  0  0  0  0  0  0  0  0  0
   -0.6313   -5.2707   31.4784 H   0  0  0  0  0  0  0  0  0  0  0  0
    0.4268   -7.8888   30.2687 H   0  0  0  0  0  0  0  0  0  0  0  0
   -0.7548   -6.8351   29.5346 H   0  0  0  0  0  0  0  0  0  0  0  0
   -2.2877   -7.1992   31.2146 H   0  0  0  0  0  0  0  0  0  0  0  0
   -1.7994   -9.0938   32.6797 H   0  0  0  0  0  0  0  0  0  0  0  0
   -1.9971   -6.6326   33.2105 H   0  0  0  0  0  0  0  0  0  0  0  0
   -1.4574   -7.7947   34.3854 H   0  0  0  0  0  0  0  0  0  0  0  0
    1.5656   -7.9455   34.3975 H   0  0  0  0  0  0  0  0  0  0  0  0
    0.4327   -7.3611   35.5925 H   0  0  0  0  0  0  0  0  0  0  0  0
    2.3339   -6.1216   36.1337 H   0  0  0  0  0  0  0  0  0  0  0  0
    2.8818   -6.0369   34.4873 H   0  0  0  0  0  0  0  0  0  0  0  0
    1.2008   -4.1729   36.0451 H   0  0  0  0  0  0  0  0  0  0  0  0
    0.4039   -1.9952   34.6491 H   0  0  0  0  0  0  0  0  0  0  0  0
    1.4532   -0.1305   33.4866 H   0  0  0  0  0  0  0  0  0  0  0  0
    3.6632   -0.4167   32.3842 H   0  0  0  0  0  0  0  0  0  0  0  0
    4.7850   -2.6215   32.4673 H   0  0  0  0  0  0  0  0  0  0  0  0
    3.7743   -4.5039   33.5994 H   0  0  0  0  0  0  0  0  0  0  0  0
    1.6403   -5.5985   32.5907 H   0  0  0  0  0  0  0  0  0  0  0  0
   -2.0270   -2.2745   28.3437 H   0  0  0  0  0  0  0  0  0  0  0  0
  1  2  1  0
  2  3  2  0
  3  4  1  0
  4  5  2  0
  5  6  1  0
  6  7  2  0
  6  8  2  0
  6  9  1  0
  9 10  1  0
 10 11  1  0
 11 12  1  0
 12 13  1  0
 13 14  1  0
 14 15  1  0
 15 16  1  0
 16 17  1  0
 17 18  1  0
 18 19  1  0
 19 20  1  0
 20 21  1  0
 21 22  2  0
 22 23  1  0
 23 24  2  0
 24 25  1  0
 25 26  2  0
 20 27  1  0
 27 28  2  0
 27 29  2  0
 17 30  1  0
  5 31  1  0
 31 32  2  0
 32  2  1  0
 30 12  1  0
 27 17  1  0
 26 21  1  0
  1 33  1  0
  1 34  1  0
  3 35  1  0
  4 36  1  0
  9 37  1  0
 10 38  1  0
 10 39  1  0
 11 40  1  0
 11 41  1  0
 12 42  1  0
 13 43  1  0
 13 44  1  0
 14 45  1  0
 15 46  1  0
 16 47  1  0
 16 48  1  0
 18 49  1  0
 18 50  1  0
 19 51  1  0
 19 52  1  0
 20 53  1  0
 22 54  1  0
 23 55  1  0
 24 56  1  0
 25 57  1  0
 26 58  1  0
 30 59  1  0
 31 60  1  0
M  END
>  <Energy>  (79) 
123.91264624553763

>  <compound_id>  (79) 
220

>  <target_id>  (79) 
1

>  <reference_id>  (79) 
136

>  <inspiration_ids>  (79) 
[198, 136]

>  <energy_score>  (79) 
-95.80788737167433

>  <distance_score>  (79) 
1.7344921012483052

>  <path>  (79) 
/opt/xchem-fragalysis-2/maxwin/BulkDock/SCRATCH/505737/C220-P136/C220-P136.minimised.mol

>  <scratch_subdir>  (79) 
/opt/xchem-fragalysis-2/maxwin/BulkDock/SCRATCH/505737/C220-P136

>  <fragmenstein_runtime>  (79) 
10.390357255935669

>  <fragmenstein_outcome>  (79) 
too moved

>  <fragmenstein_mode>  (79) 
expansion

>  <fragmenstein_error>  (79) 


$$$$
C223-P198
     RDKit          3D

 51 54  0  0  0  0  0  0  0  0999 V2000
   -1.7540   -8.4722   31.5001 N   0  0  0  0  0  0  0  0  0  0  0  0
   -1.2367   -7.7112   32.6362 C   0  0  0  0  0  0  0  0  0  0  0  0
   -0.2459   -6.7197   32.1995 C   0  0  0  0  0  0  0  0  0  0  0  0
    0.3848   -6.6484   30.9290 C   0  0  0  0  0  0  0  0  0  0  0  0
    1.1155   -5.4854   30.9013 C   0  0  0  0  0  0  0  0  0  0  0  0
    1.6984   -4.7135   29.7755 C   0  0  0  0  0  0  0  0  0  0  0  0
    0.7754   -3.5274   29.4418 C   0  0  0  0  0  0  0  0  0  0  0  0
    0.6635   -2.6471   30.6317 N   0  0  0  0  0  0  0  0  0  0  0  0
   -0.8555   -2.0717   31.0807 S   0  0  0  0  0  0  0  0  0  0  0  0
   -0.6450   -1.3146   32.2960 O   0  0  0  0  0  0  0  0  0  0  0  0
   -1.8274   -3.1402   31.0176 O   0  0  0  0  0  0  0  0  0  0  0  0
   -1.1608   -0.9274   29.7920 C   0  0  0  0  0  0  0  0  0  0  0  0
   -0.7726    0.4042   29.9031 C   0  0  0  0  0  0  0  0  0  0  0  0
   -1.0405    1.2695   28.8447 C   0  0  0  0  0  0  0  0  0  0  0  0
   -1.7024    0.7766   27.7336 C   0  0  0  0  0  0  0  0  0  0  0  0
   -2.0504    1.6026   26.6712 N   0  0  0  0  0  0  0  0  0  0  0  0
   -2.0550   -0.5100   27.6166 N   0  0  0  0  0  0  0  0  0  0  0  0
   -1.7894   -1.3449   28.6429 C   0  0  0  0  0  0  0  0  0  0  0  0
    1.1013   -4.9537   32.1652 N   0  0  0  0  0  0  0  0  0  0  0  0
    0.1873   -5.6210   32.9130 C   0  0  0  0  0  0  0  0  0  0  0  0
   -0.2745   -4.8849   34.4019 S   0  0  0  0  0  0  0  0  0  0  0  0
    0.4860   -5.9509   35.5170 C   0  0  0  0  0  0  0  0  0  0  0  0
    1.2296   -6.9961   35.2093 N   0  0  0  0  0  0  0  0  0  0  0  0
    1.5781   -7.5877   36.3988 N   0  0  0  0  0  0  0  0  0  0  0  0
    1.0208   -6.8682   37.3551 C   0  0  0  0  0  0  0  0  0  0  0  0
    1.0530   -7.1996   38.7343 C   0  0  0  0  0  0  0  0  0  0  0  0
    0.5415   -6.5142   39.8166 C   0  0  0  0  0  0  0  0  0  0  0  0
    0.7639   -7.3078   40.9672 C   0  0  0  0  0  0  0  0  0  0  0  0
    1.4071   -8.4524   40.5577 C   0  0  0  0  0  0  0  0  0  0  0  0
    1.5808   -8.3770   39.1992 N   0  0  0  0  0  0  0  0  0  0  0  0
    0.3406   -5.7903   36.8636 O   0  0  0  0  0  0  0  0  0  0  0  0
   -1.0364   -9.1585   31.2576 H   0  0  0  0  0  0  0  0  0  0  0  0
   -2.5476   -9.0174   31.8588 H   0  0  0  0  0  0  0  0  0  0  0  0
   -2.0455   -7.2051   33.1534 H   0  0  0  0  0  0  0  0  0  0  0  0
   -0.7759   -8.3769   33.3627 H   0  0  0  0  0  0  0  0  0  0  0  0
    0.2064   -7.3046   30.0880 H   0  0  0  0  0  0  0  0  0  0  0  0
    2.6961   -4.3501   30.0506 H   0  0  0  0  0  0  0  0  0  0  0  0
    1.8194   -5.3511   28.8941 H   0  0  0  0  0  0  0  0  0  0  0  0
   -0.2046   -3.9057   29.1334 H   0  0  0  0  0  0  0  0  0  0  0  0
    1.1950   -2.9476   28.6136 H   0  0  0  0  0  0  0  0  0  0  0  0
    1.3978   -1.9483   30.7438 H   0  0  0  0  0  0  0  0  0  0  0  0
   -0.2707    0.7745   30.7923 H   0  0  0  0  0  0  0  0  0  0  0  0
   -0.7573    2.3161   28.8915 H   0  0  0  0  0  0  0  0  0  0  0  0
   -2.6010    1.0046   26.0542 H   0  0  0  0  0  0  0  0  0  0  0  0
   -2.6153    2.3847   26.9967 H   0  0  0  0  0  0  0  0  0  0  0  0
   -2.1151   -2.3677   28.4930 H   0  0  0  0  0  0  0  0  0  0  0  0
    1.4715   -4.0458   32.4109 H   0  0  0  0  0  0  0  0  0  0  0  0
    0.0390   -5.5553   39.7823 H   0  0  0  0  0  0  0  0  0  0  0  0
    0.4701   -7.0786   41.9835 H   0  0  0  0  0  0  0  0  0  0  0  0
    1.7220   -9.3335   41.1020 H   0  0  0  0  0  0  0  0  0  0  0  0
    1.9274   -9.1303   38.6165 H   0  0  0  0  0  0  0  0  0  0  0  0
  1  2  1  0
  2  3  1  0
  3  4  1  0
  4  5  2  0
  5  6  1  0
  6  7  1  0
  7  8  1  0
  8  9  1  0
  9 10  2  0
  9 11  2  0
  9 12  1  0
 12 13  2  0
 13 14  1  0
 14 15  2  0
 15 16  1  0
 15 17  1  0
 17 18  2  0
  5 19  1  0
 19 20  1  0
 20 21  1  0
 21 22  1  0
 22 23  2  0
 23 24  1  0
 24 25  2  0
 25 26  1  0
 26 27  2  0
 27 28  1  0
 28 29  2  0
 29 30  1  0
 25 31  1  0
 20  3  2  0
 31 22  1  0
 18 12  1  0
 30 26  1  0
  1 32  1  0
  1 33  1  0
  2 34  1  0
  2 35  1  0
  4 36  1  0
  6 37  1  0
  6 38  1  0
  7 39  1  0
  7 40  1  0
  8 41  1  0
 13 42  1  0
 14 43  1  0
 16 44  1  0
 16 45  1  0
 18 46  1  0
 19 47  1  0
 27 48  1  0
 28 49  1  0
 29 50  1  0
 30 51  1  0
M  END
>  <Energy>  (80) 
-72.464981356120461

>  <compound_id>  (80) 
223

>  <target_id>  (80) 
1

>  <reference_id>  (80) 
198

>  <inspiration_ids>  (80) 
[198, 144]

>  <energy_score>  (80) 
-60.908146941888305

>  <distance_score>  (80) 
1.1183743310348935

>  <path>  (80) 
/opt/xchem-fragalysis-2/maxwin/BulkDock/SCRATCH/505737/C223-P198/C223-P198.minimised.mol

>  <scratch_subdir>  (80) 
/opt/xchem-fragalysis-2/maxwin/BulkDock/SCRATCH/505737/C223-P198

>  <fragmenstein_runtime>  (80) 
9.27060317993164

>  <fragmenstein_outcome>  (80) 
too moved

>  <fragmenstein_mode>  (80) 
expansion

>  <fragmenstein_error>  (80) 


$$$$
C223-P144
     RDKit          3D

 51 54  0  0  0  0  0  0  0  0999 V2000
   -1.9101   -8.5834   31.7166 N   0  0  0  0  0  0  0  0  0  0  0  0
   -1.4491   -7.7480   32.8214 C   0  0  0  0  0  0  0  0  0  0  0  0
   -0.5115   -6.7196   32.3355 C   0  0  0  0  0  0  0  0  0  0  0  0
    0.0140   -6.5930   31.0176 C   0  0  0  0  0  0  0  0  0  0  0  0
    0.8495   -5.5013   31.0017 C   0  0  0  0  0  0  0  0  0  0  0  0
    1.5770   -4.8035   29.9114 C   0  0  0  0  0  0  0  0  0  0  0  0
    0.8090   -3.5486   29.5094 C   0  0  0  0  0  0  0  0  0  0  0  0
    0.7253   -2.6626   30.6965 N   0  0  0  0  0  0  0  0  0  0  0  0
   -0.7545   -1.9561   31.0561 S   0  0  0  0  0  0  0  0  0  0  0  0
   -0.5441   -1.1642   32.2481 O   0  0  0  0  0  0  0  0  0  0  0  0
   -1.8055   -2.9461   30.9826 O   0  0  0  0  0  0  0  0  0  0  0  0
   -0.8713   -0.8608   29.6992 C   0  0  0  0  0  0  0  0  0  0  0  0
   -0.3237    0.4144   29.7470 C   0  0  0  0  0  0  0  0  0  0  0  0
   -0.4411    1.2265   28.6220 C   0  0  0  0  0  0  0  0  0  0  0  0
   -1.1695    0.7701   27.5398 C   0  0  0  0  0  0  0  0  0  0  0  0
   -1.4798    1.5980   26.4692 N   0  0  0  0  0  0  0  0  0  0  0  0
   -1.6462   -0.4754   27.4763 N   0  0  0  0  0  0  0  0  0  0  0  0
   -1.4687   -1.2833   28.5378 C   0  0  0  0  0  0  0  0  0  0  0  0
    0.8665   -4.9768   32.2648 N   0  0  0  0  0  0  0  0  0  0  0  0
   -0.0215   -5.6401   33.0410 C   0  0  0  0  0  0  0  0  0  0  0  0
   -0.3559   -4.9219   34.5661 S   0  0  0  0  0  0  0  0  0  0  0  0
    0.4683   -6.0092   35.6043 C   0  0  0  0  0  0  0  0  0  0  0  0
    1.3153   -6.9511   35.2361 N   0  0  0  0  0  0  0  0  0  0  0  0
    1.7216   -7.5754   36.3915 N   0  0  0  0  0  0  0  0  0  0  0  0
    1.0853   -6.9784   37.3831 C   0  0  0  0  0  0  0  0  0  0  0  0
    1.1749   -7.3613   38.7453 C   0  0  0  0  0  0  0  0  0  0  0  0
    0.4438   -6.9286   39.8317 C   0  0  0  0  0  0  0  0  0  0  0  0
    0.8855   -7.6637   40.9575 C   0  0  0  0  0  0  0  0  0  0  0  0
    1.8849   -8.5101   40.5311 C   0  0  0  0  0  0  0  0  0  0  0  0
    2.0492   -8.3208   39.1829 N   0  0  0  0  0  0  0  0  0  0  0  0
    0.2956   -5.9535   36.9536 O   0  0  0  0  0  0  0  0  0  0  0  0
   -1.1814   -9.2800   31.5463 H   0  0  0  0  0  0  0  0  0  0  0  0
   -2.7081   -9.1264   32.0791 H   0  0  0  0  0  0  0  0  0  0  0  0
   -2.2964   -7.2744   33.3096 H   0  0  0  0  0  0  0  0  0  0  0  0
   -0.9653   -8.3694   33.5794 H   0  0  0  0  0  0  0  0  0  0  0  0
   -0.2266   -7.2190   30.1678 H   0  0  0  0  0  0  0  0  0  0  0  0
    2.5788   -4.5150   30.2527 H   0  0  0  0  0  0  0  0  0  0  0  0
    1.7202   -5.4647   29.0580 H   0  0  0  0  0  0  0  0  0  0  0  0
   -0.1821   -3.8351   29.1445 H   0  0  0  0  0  0  0  0  0  0  0  0
    1.3334   -3.0202   28.7068 H   0  0  0  0  0  0  0  0  0  0  0  0
    1.5172   -2.0401   30.8548 H   0  0  0  0  0  0  0  0  0  0  0  0
    0.1994    0.7741   30.6279 H   0  0  0  0  0  0  0  0  0  0  0  0
    0.0005    2.2169   28.5947 H   0  0  0  0  0  0  0  0  0  0  0  0
   -2.0854    1.0312   25.8739 H   0  0  0  0  0  0  0  0  0  0  0  0
   -1.9871    2.4247   26.7832 H   0  0  0  0  0  0  0  0  0  0  0  0
   -1.8623   -2.2854   28.4142 H   0  0  0  0  0  0  0  0  0  0  0  0
    1.3011   -4.1009   32.5212 H   0  0  0  0  0  0  0  0  0  0  0  0
   -0.3406   -6.1810   39.8139 H   0  0  0  0  0  0  0  0  0  0  0  0
    0.5133   -7.5833   41.9709 H   0  0  0  0  0  0  0  0  0  0  0  0
    2.4805   -9.2375   41.0653 H   0  0  0  0  0  0  0  0  0  0  0  0
    2.6759   -8.8398   38.5816 H   0  0  0  0  0  0  0  0  0  0  0  0
  1  2  1  0
  2  3  1  0
  3  4  1  0
  4  5  2  0
  5  6  1  0
  6  7  1  0
  7  8  1  0
  8  9  1  0
  9 10  2  0
  9 11  2  0
  9 12  1  0
 12 13  2  0
 13 14  1  0
 14 15  2  0
 15 16  1  0
 15 17  1  0
 17 18  2  0
  5 19  1  0
 19 20  1  0
 20 21  1  0
 21 22  1  0
 22 23  2  0
 23 24  1  0
 24 25  2  0
 25 26  1  0
 26 27  2  0
 27 28  1  0
 28 29  2  0
 29 30  1  0
 25 31  1  0
 20  3  2  0
 31 22  1  0
 18 12  1  0
 30 26  1  0
  1 32  1  0
  1 33  1  0
  2 34  1  0
  2 35  1  0
  4 36  1  0
  6 37  1  0
  6 38  1  0
  7 39  1  0
  7 40  1  0
  8 41  1  0
 13 42  1  0
 14 43  1  0
 16 44  1  0
 16 45  1  0
 18 46  1  0
 19 47  1  0
 27 48  1  0
 28 49  1  0
 29 50  1  0
 30 51  1  0
M  END
>  <Energy>  (81) 
-71.853763921694878

>  <compound_id>  (81) 
223

>  <target_id>  (81) 
1

>  <reference_id>  (81) 
144

>  <inspiration_ids>  (81) 
[198, 144]

>  <energy_score>  (81) 
-60.29692950746491

>  <distance_score>  (81) 
1.1315727336773636

>  <path>  (81) 
/opt/xchem-fragalysis-2/maxwin/BulkDock/SCRATCH/505737/C223-P144/C223-P144.minimised.mol

>  <scratch_subdir>  (81) 
/opt/xchem-fragalysis-2/maxwin/BulkDock/SCRATCH/505737/C223-P144

>  <fragmenstein_runtime>  (81) 
9.18155288696289

>  <fragmenstein_outcome>  (81) 
too moved

>  <fragmenstein_mode>  (81) 
expansion

>  <fragmenstein_error>  (81) 


$$$$
C224-P198
     RDKit          3D

 53 57  0  0  0  0  0  0  0  0999 V2000
   -2.4090   -1.3975   27.6042 N   0  0  0  0  0  0  0  0  0  0  0  0
   -2.1283   -1.4538   28.9689 C   0  0  0  0  0  0  0  0  0  0  0  0
   -1.8047   -2.6848   29.5070 C   0  0  0  0  0  0  0  0  0  0  0  0
   -1.5458   -2.8040   30.8517 C   0  0  0  0  0  0  0  0  0  0  0  0
   -1.4750   -1.6523   31.5909 C   0  0  0  0  0  0  0  0  0  0  0  0
   -1.2821   -1.7161   33.3093 S   0  0  0  0  0  0  0  0  0  0  0  0
   -0.6958   -0.4513   33.6878 O   0  0  0  0  0  0  0  0  0  0  0  0
   -2.5551   -2.1631   33.8020 O   0  0  0  0  0  0  0  0  0  0  0  0
   -0.0873   -2.8399   33.6822 N   0  0  0  0  0  0  0  0  0  0  0  0
   -0.4281   -4.1548   34.3023 C   0  0  0  0  0  0  0  0  0  0  0  0
    0.7830   -5.0966   34.1929 C   0  0  0  0  0  0  0  0  0  0  0  0
    1.0239   -5.2248   32.7271 C   0  0  0  0  0  0  0  0  0  0  0  0
    1.7327   -4.3407   32.0881 N   0  0  0  0  0  0  0  0  0  0  0  0
    1.5046   -4.1821   30.7310 C   0  0  0  0  0  0  0  0  0  0  0  0
    1.9668   -2.9534   30.2388 N   0  0  0  0  0  0  0  0  0  0  0  0
    1.4258   -2.1482   29.2895 C   0  0  0  0  0  0  0  0  0  0  0  0
    0.7709   -2.4726   28.2111 N   0  0  0  0  0  0  0  0  0  0  0  0
    0.3252   -1.3128   27.6316 N   0  0  0  0  0  0  0  0  0  0  0  0
    0.6837   -0.2639   28.3374 C   0  0  0  0  0  0  0  0  0  0  0  0
    0.2234    1.1240   28.0978 C   0  0  0  0  0  0  0  0  0  0  0  0
   -0.8668    1.3704   27.2323 C   0  0  0  0  0  0  0  0  0  0  0  0
   -1.3949    2.6467   27.0175 C   0  0  0  0  0  0  0  0  0  0  0  0
   -0.8159    3.7297   27.6542 C   0  0  0  0  0  0  0  0  0  0  0  0
    0.2763    3.5239   28.4981 C   0  0  0  0  0  0  0  0  0  0  0  0
    0.7901    2.2343   28.7232 C   0  0  0  0  0  0  0  0  0  0  0  0
    1.4498   -0.7616   29.3737 N   0  0  0  0  0  0  0  0  0  0  0  0
    0.7799   -5.1100   30.0491 C   0  0  0  0  0  0  0  0  0  0  0  0
    0.1609   -6.2031   30.7200 C   0  0  0  0  0  0  0  0  0  0  0  0
   -0.6220   -7.2092   30.3791 N   0  0  0  0  0  0  0  0  0  0  0  0
   -0.9464   -7.7772   31.5798 C   0  0  0  0  0  0  0  0  0  0  0  0
   -0.4322   -7.1665   32.6494 N   0  0  0  0  0  0  0  0  0  0  0  0
    0.2829   -6.1878   32.0719 N   0  0  0  0  0  0  0  0  0  0  0  0
   -1.7187   -0.4360   30.9888 C   0  0  0  0  0  0  0  0  0  0  0  0
   -2.0608   -0.3215   29.6946 N   0  0  0  0  0  0  0  0  0  0  0  0
   -1.5139   -1.5025   27.1075 H   0  0  0  0  0  0  0  0  0  0  0  0
   -2.9292   -2.2325   27.3249 H   0  0  0  0  0  0  0  0  0  0  0  0
   -1.7322   -3.5539   28.8695 H   0  0  0  0  0  0  0  0  0  0  0  0
   -1.3945   -3.7720   31.3035 H   0  0  0  0  0  0  0  0  0  0  0  0
    0.6951   -2.3575   34.1299 H   0  0  0  0  0  0  0  0  0  0  0  0
   -0.6895   -4.0002   35.3533 H   0  0  0  0  0  0  0  0  0  0  0  0
   -1.2732   -4.5884   33.7678 H   0  0  0  0  0  0  0  0  0  0  0  0
    1.6641   -4.6489   34.6659 H   0  0  0  0  0  0  0  0  0  0  0  0
    0.5860   -6.0572   34.6756 H   0  0  0  0  0  0  0  0  0  0  0  0
    2.4423   -2.4961   31.0114 H   0  0  0  0  0  0  0  0  0  0  0  0
   -1.3585    0.5482   26.7247 H   0  0  0  0  0  0  0  0  0  0  0  0
   -2.2669    2.7784   26.3824 H   0  0  0  0  0  0  0  0  0  0  0  0
   -1.2260    4.7267   27.5177 H   0  0  0  0  0  0  0  0  0  0  0  0
    0.7173    4.3778   29.0078 H   0  0  0  0  0  0  0  0  0  0  0  0
    1.6341    2.1294   29.3967 H   0  0  0  0  0  0  0  0  0  0  0  0
    1.8295   -0.2189   30.1288 H   0  0  0  0  0  0  0  0  0  0  0  0
    0.5748   -4.9611   28.9975 H   0  0  0  0  0  0  0  0  0  0  0  0
   -1.5775   -8.6512   31.6867 H   0  0  0  0  0  0  0  0  0  0  0  0
   -1.6936    0.4976   31.5382 H   0  0  0  0  0  0  0  0  0  0  0  0
  1  2  1  0
  2  3  2  0
  3  4  1  0
  4  5  2  0
  5  6  1  0
  6  7  2  0
  6  8  2  0
  6  9  1  0
  9 10  1  0
 10 11  1  0
 11 12  1  0
 12 13  2  0
 13 14  1  0
 14 15  1  0
 15 16  1  0
 16 17  2  0
 17 18  1  0
 18 19  2  0
 19 20  1  0
 20 21  2  0
 21 22  1  0
 22 23  2  0
 23 24  1  0
 24 25  2  0
 19 26  1  0
 14 27  2  0
 27 28  1  0
 28 29  2  0
 29 30  1  0
 30 31  2  0
 31 32  1  0
  5 33  1  0
 33 34  2  0
 34  2  1  0
 32 12  1  0
 26 16  1  0
 32 28  1  0
 25 20  1  0
  1 35  1  0
  1 36  1  0
  3 37  1  0
  4 38  1  0
  9 39  1  0
 10 40  1  0
 10 41  1  0
 11 42  1  0
 11 43  1  0
 15 44  1  0
 21 45  1  0
 22 46  1  0
 23 47  1  0
 24 48  1  0
 25 49  1  0
 26 50  1  0
 27 51  1  0
 30 52  1  0
 33 53  1  0
M  END
>  <Energy>  (82) 
-43.452968516938128

>  <compound_id>  (82) 
224

>  <target_id>  (82) 
1

>  <reference_id>  (82) 
198

>  <inspiration_ids>  (82) 
[198, 147]

>  <energy_score>  (82) 
-21.452335915628964

>  <distance_score>  (82) 
2.0735699208439353

>  <path>  (82) 
/opt/xchem-fragalysis-2/maxwin/BulkDock/SCRATCH/505737/C224-P198/C224-P198.minimised.mol

>  <scratch_subdir>  (82) 
/opt/xchem-fragalysis-2/maxwin/BulkDock/SCRATCH/505737/C224-P198

>  <fragmenstein_runtime>  (82) 
4.469513416290283

>  <fragmenstein_outcome>  (82) 
too moved

>  <fragmenstein_mode>  (82) 
expansion

>  <fragmenstein_error>  (82) 


$$$$
C224-P147
     RDKit          3D

 53 57  0  0  0  0  0  0  0  0999 V2000
   -2.1399   -0.0456   26.9924 N   0  0  0  0  0  0  0  0  0  0  0  0
   -1.8695   -0.4985   28.2568 C   0  0  0  0  0  0  0  0  0  0  0  0
   -1.9432    0.3220   29.3699 C   0  0  0  0  0  0  0  0  0  0  0  0
   -1.7827   -0.2076   30.6543 C   0  0  0  0  0  0  0  0  0  0  0  0
   -1.5952   -1.5659   30.7903 C   0  0  0  0  0  0  0  0  0  0  0  0
   -1.7045   -2.3994   32.3253 S   0  0  0  0  0  0  0  0  0  0  0  0
   -2.3777   -1.5014   33.2349 O   0  0  0  0  0  0  0  0  0  0  0  0
   -2.2645   -3.6953   31.9915 O   0  0  0  0  0  0  0  0  0  0  0  0
   -0.1796   -2.6818   32.9622 N   0  0  0  0  0  0  0  0  0  0  0  0
   -0.0546   -3.6986   34.0652 C   0  0  0  0  0  0  0  0  0  0  0  0
    1.0772   -4.7032   33.8177 C   0  0  0  0  0  0  0  0  0  0  0  0
    0.9328   -5.1398   32.4060 C   0  0  0  0  0  0  0  0  0  0  0  0
    1.4396   -4.4158   31.4479 N   0  0  0  0  0  0  0  0  0  0  0  0
    0.9056   -4.5424   30.1789 C   0  0  0  0  0  0  0  0  0  0  0  0
    1.1324   -3.5481   29.1974 N   0  0  0  0  0  0  0  0  0  0  0  0
    1.3643   -2.2251   29.4721 C   0  0  0  0  0  0  0  0  0  0  0  0
    1.5616   -1.6405   30.6304 N   0  0  0  0  0  0  0  0  0  0  0  0
    1.4671   -0.2790   30.4622 N   0  0  0  0  0  0  0  0  0  0  0  0
    1.2273   -0.0079   29.1935 C   0  0  0  0  0  0  0  0  0  0  0  0
    0.8641    1.3253   28.6533 C   0  0  0  0  0  0  0  0  0  0  0  0
    0.3864    1.5053   27.3569 C   0  0  0  0  0  0  0  0  0  0  0  0
   -0.1475    2.7176   26.8886 C   0  0  0  0  0  0  0  0  0  0  0  0
   -0.1865    3.8108   27.7328 C   0  0  0  0  0  0  0  0  0  0  0  0
    0.3283    3.6815   29.0190 C   0  0  0  0  0  0  0  0  0  0  0  0
    0.8435    2.4545   29.4743 C   0  0  0  0  0  0  0  0  0  0  0  0
    1.2090   -1.2243   28.5291 N   0  0  0  0  0  0  0  0  0  0  0  0
    0.0280   -5.5502   29.9308 C   0  0  0  0  0  0  0  0  0  0  0  0
   -0.3642   -6.4789   30.9140 C   0  0  0  0  0  0  0  0  0  0  0  0
   -1.1715   -7.5170   30.9394 N   0  0  0  0  0  0  0  0  0  0  0  0
   -1.1981   -7.8278   32.2682 C   0  0  0  0  0  0  0  0  0  0  0  0
   -0.4285   -7.0658   33.0566 N   0  0  0  0  0  0  0  0  0  0  0  0
    0.0773   -6.2000   32.1633 N   0  0  0  0  0  0  0  0  0  0  0  0
   -1.6188   -2.3082   29.6348 C   0  0  0  0  0  0  0  0  0  0  0  0
   -1.6569   -1.8015   28.3817 N   0  0  0  0  0  0  0  0  0  0  0  0
   -1.9812   -0.7470   26.2644 H   0  0  0  0  0  0  0  0  0  0  0  0
   -1.9757    0.9184   26.7647 H   0  0  0  0  0  0  0  0  0  0  0  0
   -2.1405    1.3781   29.2268 H   0  0  0  0  0  0  0  0  0  0  0  0
   -1.8407    0.4332   31.5269 H   0  0  0  0  0  0  0  0  0  0  0  0
    0.6303   -2.4967   32.3484 H   0  0  0  0  0  0  0  0  0  0  0  0
   -0.9999   -4.2313   34.2023 H   0  0  0  0  0  0  0  0  0  0  0  0
    0.1413   -3.1544   34.9956 H   0  0  0  0  0  0  0  0  0  0  0  0
    2.0467   -4.2040   33.9303 H   0  0  0  0  0  0  0  0  0  0  0  0
    1.0411   -5.5314   34.5300 H   0  0  0  0  0  0  0  0  0  0  0  0
    0.6296   -3.7413   28.3357 H   0  0  0  0  0  0  0  0  0  0  0  0
    0.3479    0.6358   26.7286 H   0  0  0  0  0  0  0  0  0  0  0  0
   -0.5407    2.8018   25.8801 H   0  0  0  0  0  0  0  0  0  0  0  0
   -0.6059    4.7573   27.4026 H   0  0  0  0  0  0  0  0  0  0  0  0
    0.3072    4.5364   29.6931 H   0  0  0  0  0  0  0  0  0  0  0  0
    1.1966    2.3842   30.5022 H   0  0  0  0  0  0  0  0  0  0  0  0
    0.8476   -1.3625   27.6025 H   0  0  0  0  0  0  0  0  0  0  0  0
   -0.5174   -5.5791   29.0035 H   0  0  0  0  0  0  0  0  0  0  0  0
   -1.8007   -8.6285   32.6760 H   0  0  0  0  0  0  0  0  0  0  0  0
   -1.6229   -3.3880   29.6539 H   0  0  0  0  0  0  0  0  0  0  0  0
  1  2  1  0
  2  3  2  0
  3  4  1  0
  4  5  2  0
  5  6  1  0
  6  7  2  0
  6  8  2  0
  6  9  1  0
  9 10  1  0
 10 11  1  0
 11 12  1  0
 12 13  2  0
 13 14  1  0
 14 15  1  0
 15 16  1  0
 16 17  2  0
 17 18  1  0
 18 19  2  0
 19 20  1  0
 20 21  2  0
 21 22  1  0
 22 23  2  0
 23 24  1  0
 24 25  2  0
 19 26  1  0
 14 27  2  0
 27 28  1  0
 28 29  2  0
 29 30  1  0
 30 31  2  0
 31 32  1  0
  5 33  1  0
 33 34  2  0
 34  2  1  0
 32 12  1  0
 26 16  1  0
 32 28  1  0
 25 20  1  0
  1 35  1  0
  1 36  1  0
  3 37  1  0
  4 38  1  0
  9 39  1  0
 10 40  1  0
 10 41  1  0
 11 42  1  0
 11 43  1  0
 15 44  1  0
 21 45  1  0
 22 46  1  0
 23 47  1  0
 24 48  1  0
 25 49  1  0
 26 50  1  0
 27 51  1  0
 30 52  1  0
 33 53  1  0
M  END
>  <Energy>  (83) 
-49.939513116730303

>  <compound_id>  (83) 
224

>  <target_id>  (83) 
1

>  <reference_id>  (83) 
147

>  <inspiration_ids>  (83) 
[198, 147]

>  <energy_score>  (83) 
-27.93888051542092

>  <distance_score>  (83) 
2.2528455835307564

>  <path>  (83) 
/opt/xchem-fragalysis-2/maxwin/BulkDock/SCRATCH/505737/C224-P147/C224-P147.minimised.mol

>  <scratch_subdir>  (83) 
/opt/xchem-fragalysis-2/maxwin/BulkDock/SCRATCH/505737/C224-P147

>  <fragmenstein_runtime>  (83) 
5.401129961013794

>  <fragmenstein_outcome>  (83) 
too moved

>  <fragmenstein_mode>  (83) 
expansion

>  <fragmenstein_error>  (83) 


$$$$
C226-P198
     RDKit          3D

 69 73  0  0  0  0  0  0  0  0999 V2000
   -1.8232    1.3504   26.8716 N   0  0  0  0  0  0  0  0  0  0  0  0
   -1.5313    0.5239   27.9512 C   0  0  0  0  0  0  0  0  0  0  0  0
   -0.8940    1.0040   29.0829 C   0  0  0  0  0  0  0  0  0  0  0  0
   -0.6916    0.1381   30.1582 C   0  0  0  0  0  0  0  0  0  0  0  0
   -1.1154   -1.1835   30.0443 C   0  0  0  0  0  0  0  0  0  0  0  0
   -1.0196   -2.2915   31.4031 S   0  0  0  0  0  0  0  0  0  0  0  0
   -1.2073   -1.4930   32.5965 O   0  0  0  0  0  0  0  0  0  0  0  0
   -1.8803   -3.4238   31.1350 O   0  0  0  0  0  0  0  0  0  0  0  0
    0.5605   -2.7882   31.3867 N   0  0  0  0  0  0  0  0  0  0  0  0
    1.1671   -3.5415   30.3202 C   0  0  0  0  0  0  0  0  0  0  0  0
    0.6699   -4.9815   30.1067 C   0  0  0  0  0  0  0  0  0  0  0  0
    0.2089   -5.8581   31.2353 C   0  0  0  0  0  0  0  0  0  0  0  0
    0.5204   -5.5824   32.5115 N   0  0  0  0  0  0  0  0  0  0  0  0
   -0.0932   -6.3233   33.4550 C   0  0  0  0  0  0  0  0  0  0  0  0
   -0.9401   -7.3635   33.1726 C   0  0  0  0  0  0  0  0  0  0  0  0
   -1.1112   -7.6160   31.8395 C   0  0  0  0  0  0  0  0  0  0  0  0
   -1.9190   -8.6109   31.3895 O   0  0  0  0  0  0  0  0  0  0  0  0
   -0.5437   -6.9088   30.8604 N   0  0  0  0  0  0  0  0  0  0  0  0
    2.6357   -3.4168   30.3861 N   0  0  0  0  0  0  0  0  0  0  0  0
    3.2456   -3.8490   31.6632 C   0  0  0  0  0  0  0  0  0  0  0  0
    3.3108   -2.7728   32.8060 C   0  0  0  0  0  0  0  0  0  0  0  0
    2.9424   -1.4287   32.2993 N   0  0  0  0  0  0  0  0  0  0  0  0
    2.4873   -3.1384   34.0001 C   0  0  0  0  0  0  0  0  0  0  0  0
    1.4433   -2.3186   34.3505 O   0  0  0  0  0  0  0  0  0  0  0  0
    0.8831   -2.9188   35.4312 C   0  0  0  0  0  0  0  0  0  0  0  0
    1.4949   -4.0063   35.8484 N   0  0  0  0  0  0  0  0  0  0  0  0
    2.5185   -4.1689   34.9203 C   0  0  0  0  0  0  0  0  0  0  0  0
    3.4443   -5.2988   34.9494 C   0  0  0  0  0  0  0  0  0  0  0  0
    4.2623   -5.4446   34.1276 O   0  0  0  0  0  0  0  0  0  0  0  0
    3.1018   -6.1613   36.1878 N   0  0  0  0  0  0  0  0  0  0  0  0
    3.7213   -7.2704   36.6978 C   0  0  0  0  0  0  0  0  0  0  0  0
    4.6916   -7.8975   36.0158 C   0  0  0  0  0  0  0  0  0  0  0  0
    5.3688   -8.9766   36.5146 N   0  0  0  0  0  0  0  0  0  0  0  0
    5.1694   -9.5087   37.7645 C   0  0  0  0  0  0  0  0  0  0  0  0
    5.8402  -10.4470   38.1762 O   0  0  0  0  0  0  0  0  0  0  0  0
    4.0824   -8.8935   38.5655 C   0  0  0  0  0  0  0  0  0  0  0  0
    3.7704   -9.4438   39.8153 C   0  0  0  0  0  0  0  0  0  0  0  0
    2.7111   -8.9253   40.5529 C   0  0  0  0  0  0  0  0  0  0  0  0
    1.9715   -7.8602   40.0457 C   0  0  0  0  0  0  0  0  0  0  0  0
    2.2869   -7.3052   38.7995 C   0  0  0  0  0  0  0  0  0  0  0  0
    3.3503   -7.8104   38.0329 C   0  0  0  0  0  0  0  0  0  0  0  0
   -1.7130   -1.5869   28.8732 C   0  0  0  0  0  0  0  0  0  0  0  0
   -1.9234   -0.7513   27.8339 N   0  0  0  0  0  0  0  0  0  0  0  0
   -2.3364    0.7441   26.2286 H   0  0  0  0  0  0  0  0  0  0  0  0
   -2.4015    2.1350   27.1630 H   0  0  0  0  0  0  0  0  0  0  0  0
   -0.5771    2.0405   29.1324 H   0  0  0  0  0  0  0  0  0  0  0  0
   -0.2211    0.4981   31.0690 H   0  0  0  0  0  0  0  0  0  0  0  0
    1.1942   -2.1162   31.8396 H   0  0  0  0  0  0  0  0  0  0  0  0
    0.9391   -3.0118   29.3863 H   0  0  0  0  0  0  0  0  0  0  0  0
    1.4172   -5.5481   29.5356 H   0  0  0  0  0  0  0  0  0  0  0  0
   -0.1948   -4.8951   29.4343 H   0  0  0  0  0  0  0  0  0  0  0  0
    0.1069   -6.0345   34.4825 H   0  0  0  0  0  0  0  0  0  0  0  0
   -1.4232   -7.9254   33.9568 H   0  0  0  0  0  0  0  0  0  0  0  0
   -2.4883   -8.9198   32.1176 H   0  0  0  0  0  0  0  0  0  0  0  0
    3.0330   -3.9719   29.6305 H   0  0  0  0  0  0  0  0  0  0  0  0
    2.8379   -4.8047   31.9966 H   0  0  0  0  0  0  0  0  0  0  0  0
    4.2928   -4.0632   31.4079 H   0  0  0  0  0  0  0  0  0  0  0  0
    4.3565   -2.7107   33.1352 H   0  0  0  0  0  0  0  0  0  0  0  0
    3.3198   -0.7269   32.9336 H   0  0  0  0  0  0  0  0  0  0  0  0
    3.4022   -1.3075   31.3949 H   0  0  0  0  0  0  0  0  0  0  0  0
    0.0015   -2.4437   35.8393 H   0  0  0  0  0  0  0  0  0  0  0  0
    2.3828   -5.6964   36.7370 H   0  0  0  0  0  0  0  0  0  0  0  0
    5.0271   -7.5759   35.0360 H   0  0  0  0  0  0  0  0  0  0  0  0
    6.1181   -9.4007   35.9789 H   0  0  0  0  0  0  0  0  0  0  0  0
    4.3347  -10.2896   40.2023 H   0  0  0  0  0  0  0  0  0  0  0  0
    2.4469   -9.3673   41.5106 H   0  0  0  0  0  0  0  0  0  0  0  0
    1.1321   -7.4705   40.6169 H   0  0  0  0  0  0  0  0  0  0  0  0
    1.6637   -6.4883   38.4503 H   0  0  0  0  0  0  0  0  0  0  0  0
   -2.0719   -2.5978   28.7204 H   0  0  0  0  0  0  0  0  0  0  0  0
  1  2  1  0
  2  3  2  0
  3  4  1  0
  4  5  2  0
  5  6  1  0
  6  7  2  0
  6  8  2  0
  6  9  1  0
  9 10  1  0
 10 11  1  0
 11 12  1  0
 12 13  2  0
 13 14  1  0
 14 15  2  0
 15 16  1  0
 16 17  1  0
 16 18  2  0
 10 19  1  0
 19 20  1  0
 20 21  1  0
 21 22  1  0
 21 23  1  0
 23 24  1  0
 24 25  1  0
 25 26  2  0
 26 27  1  0
 27 28  1  0
 28 29  2  0
 28 30  1  0
 30 31  1  0
 31 32  2  0
 32 33  1  0
 33 34  1  0
 34 35  2  0
 34 36  1  0
 36 37  2  0
 37 38  1  0
 38 39  2  0
 39 40  1  0
 40 41  2  0
  5 42  1  0
 42 43  2  0
 43  2  1  0
 18 12  1  0
 27 23  2  0
 41 31  1  0
 41 36  1  0
  1 44  1  0
  1 45  1  0
  3 46  1  0
  4 47  1  0
  9 48  1  0
 10 49  1  0
 11 50  1  0
 11 51  1  0
 14 52  1  0
 15 53  1  0
 17 54  1  0
 19 55  1  0
 20 56  1  0
 20 57  1  0
 21 58  1  0
 22 59  1  0
 22 60  1  0
 25 61  1  0
 30 62  1  0
 32 63  1  0
 33 64  1  0
 37 65  1  0
 38 66  1  0
 39 67  1  0
 40 68  1  0
 42 69  1  0
M  END
>  <Energy>  (84) 
-97.997520457465043

>  <compound_id>  (84) 
226

>  <target_id>  (84) 
1

>  <reference_id>  (84) 
198

>  <inspiration_ids>  (84) 
[198, 149]

>  <energy_score>  (84) 
-120.89342197920479

>  <distance_score>  (84) 
0.9236275647206514

>  <path>  (84) 
/opt/xchem-fragalysis-2/maxwin/BulkDock/SCRATCH/505737/C226-P198/C226-P198.minimised.mol

>  <scratch_subdir>  (84) 
/opt/xchem-fragalysis-2/maxwin/BulkDock/SCRATCH/505737/C226-P198

>  <fragmenstein_runtime>  (84) 
13.8130521774292

>  <fragmenstein_outcome>  (84) 
acceptable

>  <fragmenstein_mode>  (84) 
expansion

>  <fragmenstein_error>  (84) 


$$$$
C226-P149
     RDKit          3D

 69 73  0  0  0  0  0  0  0  0999 V2000
   -1.6089    1.4208   26.9072 N   0  0  0  0  0  0  0  0  0  0  0  0
   -1.3035    0.5857   27.9770 C   0  0  0  0  0  0  0  0  0  0  0  0
   -0.7491    1.0760   29.1462 C   0  0  0  0  0  0  0  0  0  0  0  0
   -0.5733    0.2068   30.2244 C   0  0  0  0  0  0  0  0  0  0  0  0
   -0.9202   -1.1321   30.0710 C   0  0  0  0  0  0  0  0  0  0  0  0
   -0.9350   -2.2368   31.4372 S   0  0  0  0  0  0  0  0  0  0  0  0
   -1.1335   -1.4276   32.6215 O   0  0  0  0  0  0  0  0  0  0  0  0
   -1.8294   -3.3350   31.1445 O   0  0  0  0  0  0  0  0  0  0  0  0
    0.6150   -2.8119   31.4922 N   0  0  0  0  0  0  0  0  0  0  0  0
    1.2144   -3.6043   30.4513 C   0  0  0  0  0  0  0  0  0  0  0  0
    0.7081   -5.0529   30.2934 C   0  0  0  0  0  0  0  0  0  0  0  0
    0.2061   -5.8818   31.4451 C   0  0  0  0  0  0  0  0  0  0  0  0
    0.5728   -5.6194   32.7092 N   0  0  0  0  0  0  0  0  0  0  0  0
   -0.0153   -6.3570   33.6758 C   0  0  0  0  0  0  0  0  0  0  0  0
   -0.8908   -7.3838   33.4293 C   0  0  0  0  0  0  0  0  0  0  0  0
   -1.1281   -7.6198   32.1039 C   0  0  0  0  0  0  0  0  0  0  0  0
   -1.9650   -8.6091   31.6913 O   0  0  0  0  0  0  0  0  0  0  0  0
   -0.5880   -6.9156   31.1016 N   0  0  0  0  0  0  0  0  0  0  0  0
    2.6830   -3.4734   30.5172 N   0  0  0  0  0  0  0  0  0  0  0  0
    3.2854   -3.8504   31.8152 C   0  0  0  0  0  0  0  0  0  0  0  0
    3.3512   -2.7349   32.9189 C   0  0  0  0  0  0  0  0  0  0  0  0
    2.9432   -1.4163   32.3778 N   0  0  0  0  0  0  0  0  0  0  0  0
    2.5590   -3.0876   34.1388 C   0  0  0  0  0  0  0  0  0  0  0  0
    1.5227   -2.2670   34.5083 O   0  0  0  0  0  0  0  0  0  0  0  0
    0.9921   -2.8605   35.6081 C   0  0  0  0  0  0  0  0  0  0  0  0
    1.6168   -3.9434   36.0183 N   0  0  0  0  0  0  0  0  0  0  0  0
    2.6153   -4.1121   35.0655 C   0  0  0  0  0  0  0  0  0  0  0  0
    3.5443   -5.2405   35.0755 C   0  0  0  0  0  0  0  0  0  0  0  0
    4.3490   -5.3774   34.2391 O   0  0  0  0  0  0  0  0  0  0  0  0
    3.2526   -6.0904   36.3350 N   0  0  0  0  0  0  0  0  0  0  0  0
    3.7976   -7.2732   36.7549 C   0  0  0  0  0  0  0  0  0  0  0  0
    4.6532   -7.9552   35.9779 C   0  0  0  0  0  0  0  0  0  0  0  0
    5.2743   -9.1027   36.3900 N   0  0  0  0  0  0  0  0  0  0  0  0
    5.1308   -9.6574   37.6376 C   0  0  0  0  0  0  0  0  0  0  0  0
    5.7481  -10.6631   37.9676 O   0  0  0  0  0  0  0  0  0  0  0  0
    4.1699   -8.9792   38.5435 C   0  0  0  0  0  0  0  0  0  0  0  0
    3.9336   -9.5288   39.8112 C   0  0  0  0  0  0  0  0  0  0  0  0
    3.0028   -8.9362   40.6585 C   0  0  0  0  0  0  0  0  0  0  0  0
    2.3115   -7.8025   40.2390 C   0  0  0  0  0  0  0  0  0  0  0  0
    2.5515   -7.2499   38.9743 C   0  0  0  0  0  0  0  0  0  0  0  0
    3.4889   -7.8252   38.1006 C   0  0  0  0  0  0  0  0  0  0  0  0
   -1.3935   -1.5501   28.8498 C   0  0  0  0  0  0  0  0  0  0  0  0
   -1.6011   -0.7077   27.8148 N   0  0  0  0  0  0  0  0  0  0  0  0
   -2.0761    0.8068   26.2383 H   0  0  0  0  0  0  0  0  0  0  0  0
   -2.2379    2.1639   27.2046 H   0  0  0  0  0  0  0  0  0  0  0  0
   -0.4935    2.1273   29.2272 H   0  0  0  0  0  0  0  0  0  0  0  0
   -0.1932    0.5812   31.1707 H   0  0  0  0  0  0  0  0  0  0  0  0
    1.2605   -2.1348   31.9212 H   0  0  0  0  0  0  0  0  0  0  0  0
    0.9915   -3.1129   29.4962 H   0  0  0  0  0  0  0  0  0  0  0  0
    1.4731   -5.6481   29.7791 H   0  0  0  0  0  0  0  0  0  0  0  0
   -0.1285   -4.9981   29.5828 H   0  0  0  0  0  0  0  0  0  0  0  0
    0.2400   -6.0828   34.6954 H   0  0  0  0  0  0  0  0  0  0  0  0
   -1.3381   -7.9574   34.2296 H   0  0  0  0  0  0  0  0  0  0  0  0
   -2.4813   -8.9314   32.4542 H   0  0  0  0  0  0  0  0  0  0  0  0
    3.0842   -4.0600   29.7881 H   0  0  0  0  0  0  0  0  0  0  0  0
    2.8570   -4.7810   32.1877 H   0  0  0  0  0  0  0  0  0  0  0  0
    4.3313   -4.0892   31.5780 H   0  0  0  0  0  0  0  0  0  0  0  0
    4.4011   -2.6392   33.2255 H   0  0  0  0  0  0  0  0  0  0  0  0
    3.2854   -0.6891   33.0038 H   0  0  0  0  0  0  0  0  0  0  0  0
    3.4150   -1.2966   31.4792 H   0  0  0  0  0  0  0  0  0  0  0  0
    0.1205   -2.3841   36.0358 H   0  0  0  0  0  0  0  0  0  0  0  0
    2.5322   -5.6367   36.8913 H   0  0  0  0  0  0  0  0  0  0  0  0
    4.9344   -7.6291   34.9821 H   0  0  0  0  0  0  0  0  0  0  0  0
    5.9356   -9.5682   35.7784 H   0  0  0  0  0  0  0  0  0  0  0  0
    4.4686  -10.4202   40.1322 H   0  0  0  0  0  0  0  0  0  0  0  0
    2.8108   -9.3614   41.6404 H   0  0  0  0  0  0  0  0  0  0  0  0
    1.5756   -7.3452   40.8968 H   0  0  0  0  0  0  0  0  0  0  0  0
    1.9774   -6.3704   38.7000 H   0  0  0  0  0  0  0  0  0  0  0  0
   -1.6772   -2.5779   28.6611 H   0  0  0  0  0  0  0  0  0  0  0  0
  1  2  1  0
  2  3  2  0
  3  4  1  0
  4  5  2  0
  5  6  1  0
  6  7  2  0
  6  8  2  0
  6  9  1  0
  9 10  1  0
 10 11  1  0
 11 12  1  0
 12 13  2  0
 13 14  1  0
 14 15  2  0
 15 16  1  0
 16 17  1  0
 16 18  2  0
 10 19  1  0
 19 20  1  0
 20 21  1  0
 21 22  1  0
 21 23  1  0
 23 24  1  0
 24 25  1  0
 25 26  2  0
 26 27  1  0
 27 28  1  0
 28 29  2  0
 28 30  1  0
 30 31  1  0
 31 32  2  0
 32 33  1  0
 33 34  1  0
 34 35  2  0
 34 36  1  0
 36 37  2  0
 37 38  1  0
 38 39  2  0
 39 40  1  0
 40 41  2  0
  5 42  1  0
 42 43  2  0
 43  2  1  0
 18 12  1  0
 27 23  2  0
 41 31  1  0
 41 36  1  0
  1 44  1  0
  1 45  1  0
  3 46  1  0
  4 47  1  0
  9 48  1  0
 10 49  1  0
 11 50  1  0
 11 51  1  0
 14 52  1  0
 15 53  1  0
 17 54  1  0
 19 55  1  0
 20 56  1  0
 20 57  1  0
 21 58  1  0
 22 59  1  0
 22 60  1  0
 25 61  1  0
 30 62  1  0
 32 63  1  0
 33 64  1  0
 37 65  1  0
 38 66  1  0
 39 67  1  0
 40 68  1  0
 42 69  1  0
M  END
>  <Energy>  (85) 
-97.240978265548364

>  <compound_id>  (85) 
226

>  <target_id>  (85) 
1

>  <reference_id>  (85) 
149

>  <inspiration_ids>  (85) 
[198, 149]

>  <energy_score>  (85) 
-120.13687978729214

>  <distance_score>  (85) 
0.9428735128575744

>  <path>  (85) 
/opt/xchem-fragalysis-2/maxwin/BulkDock/SCRATCH/505737/C226-P149/C226-P149.minimised.mol

>  <scratch_subdir>  (85) 
/opt/xchem-fragalysis-2/maxwin/BulkDock/SCRATCH/505737/C226-P149

>  <fragmenstein_runtime>  (85) 
13.701075792312622

>  <fragmenstein_outcome>  (85) 
acceptable

>  <fragmenstein_mode>  (85) 
expansion

>  <fragmenstein_error>  (85) 


$$$$
C227-P198
     RDKit          3D

 73 77  0  0  0  0  0  0  0  0999 V2000
   -1.7831   -6.2257   35.5146 N   0  0  0  0  0  0  0  0  0  0  0  0
   -0.7704   -5.5754   36.3098 C   0  0  0  0  0  0  0  0  0  0  0  0
   -0.4536   -4.1832   35.9104 C   0  0  0  0  0  0  0  0  0  0  0  0
   -1.4170   -3.3653   35.4060 O   0  0  0  0  0  0  0  0  0  0  0  0
   -0.7948   -2.1628   35.2800 C   0  0  0  0  0  0  0  0  0  0  0  0
    0.4658   -2.1363   35.6538 N   0  0  0  0  0  0  0  0  0  0  0  0
    0.6869   -3.4247   36.0825 C   0  0  0  0  0  0  0  0  0  0  0  0
    1.8396   -3.8813   36.8444 C   0  0  0  0  0  0  0  0  0  0  0  0
    2.9858   -3.9168   36.4371 N   0  0  0  0  0  0  0  0  0  0  0  0
    3.3309   -3.4605   35.0684 C   0  0  0  0  0  0  0  0  0  0  0  0
    2.9387   -4.4734   33.9436 C   0  0  0  0  0  0  0  0  0  0  0  0
    2.1891   -3.8172   32.8530 N   0  0  0  0  0  0  0  0  0  0  0  0
    1.7614   -4.6563   31.6621 C   0  0  0  0  0  0  0  0  0  0  0  0
    1.0600   -3.6673   30.6631 C   0  0  0  0  0  0  0  0  0  0  0  0
    0.4564   -2.5566   31.4374 N   0  0  0  0  0  0  0  0  0  0  0  0
   -1.1591   -2.1905   31.3377 S   0  0  0  0  0  0  0  0  0  0  0  0
   -1.4576   -1.3633   32.4857 O   0  0  0  0  0  0  0  0  0  0  0  0
   -1.9059   -3.4018   31.0807 O   0  0  0  0  0  0  0  0  0  0  0  0
   -1.2084   -1.1252   29.9547 C   0  0  0  0  0  0  0  0  0  0  0  0
   -0.8352    0.2119   30.0687 C   0  0  0  0  0  0  0  0  0  0  0  0
   -1.0282    1.0572   28.9797 C   0  0  0  0  0  0  0  0  0  0  0  0
   -1.5950    0.5355   27.8312 C   0  0  0  0  0  0  0  0  0  0  0  0
   -1.9406    1.3453   26.7627 N   0  0  0  0  0  0  0  0  0  0  0  0
   -1.9324   -0.7556   27.7126 N   0  0  0  0  0  0  0  0  0  0  0  0
   -1.7317   -1.5705   28.7675 C   0  0  0  0  0  0  0  0  0  0  0  0
    0.8339   -5.8406   31.9420 C   0  0  0  0  0  0  0  0  0  0  0  0
    0.8842   -6.4123   33.1572 N   0  0  0  0  0  0  0  0  0  0  0  0
    0.0154   -7.3951   33.4144 C   0  0  0  0  0  0  0  0  0  0  0  0
   -0.8950   -7.8523   32.5136 C   0  0  0  0  0  0  0  0  0  0  0  0
   -0.7602   -7.3044   31.2818 C   0  0  0  0  0  0  0  0  0  0  0  0
   -1.5079   -7.7798   30.2637 O   0  0  0  0  0  0  0  0  0  0  0  0
    0.0819   -6.3281   30.9391 N   0  0  0  0  0  0  0  0  0  0  0  0
    1.2299   -4.3047   38.2510 N   0  0  0  0  0  0  0  0  0  0  0  0
    1.8426   -4.7308   39.3913 C   0  0  0  0  0  0  0  0  0  0  0  0
    2.8541   -4.0981   40.0028 C   0  0  0  0  0  0  0  0  0  0  0  0
    3.0974   -4.2667   41.3448 N   0  0  0  0  0  0  0  0  0  0  0  0
    2.2788   -4.9842   42.1979 C   0  0  0  0  0  0  0  0  0  0  0  0
    2.4330   -4.9548   43.4134 O   0  0  0  0  0  0  0  0  0  0  0  0
    1.2376   -5.8315   41.5546 C   0  0  0  0  0  0  0  0  0  0  0  0
    0.5619   -6.7974   42.3122 C   0  0  0  0  0  0  0  0  0  0  0  0
   -0.1519   -7.7989   41.6656 C   0  0  0  0  0  0  0  0  0  0  0  0
   -0.1841   -7.8284   40.2764 C   0  0  0  0  0  0  0  0  0  0  0  0
    0.4098   -6.8092   39.5288 C   0  0  0  0  0  0  0  0  0  0  0  0
    1.1136   -5.7761   40.1611 C   0  0  0  0  0  0  0  0  0  0  0  0
   -1.8145   -5.7738   34.5964 H   0  0  0  0  0  0  0  0  0  0  0  0
   -1.5973   -7.2145   35.4180 H   0  0  0  0  0  0  0  0  0  0  0  0
   -1.1146   -5.5727   37.3467 H   0  0  0  0  0  0  0  0  0  0  0  0
    0.1464   -6.1722   36.2599 H   0  0  0  0  0  0  0  0  0  0  0  0
   -1.3981   -1.3478   34.9076 H   0  0  0  0  0  0  0  0  0  0  0  0
    4.4195   -3.3272   35.0387 H   0  0  0  0  0  0  0  0  0  0  0  0
    2.9219   -2.4603   34.8800 H   0  0  0  0  0  0  0  0  0  0  0  0
    2.3733   -5.2800   34.4072 H   0  0  0  0  0  0  0  0  0  0  0  0
    3.8549   -4.9112   33.5306 H   0  0  0  0  0  0  0  0  0  0  0  0
    2.7686   -3.0543   32.4956 H   0  0  0  0  0  0  0  0  0  0  0  0
    2.6559   -5.0611   31.1759 H   0  0  0  0  0  0  0  0  0  0  0  0
    0.3485   -4.1283   29.9738 H   0  0  0  0  0  0  0  0  0  0  0  0
    1.8374   -3.2042   30.0415 H   0  0  0  0  0  0  0  0  0  0  0  0
    0.7953   -2.5052   32.4095 H   0  0  0  0  0  0  0  0  0  0  0  0
   -0.4328    0.6033   30.9984 H   0  0  0  0  0  0  0  0  0  0  0  0
   -0.7903    2.1135   29.0420 H   0  0  0  0  0  0  0  0  0  0  0  0
   -2.3056    0.7094   26.0553 H   0  0  0  0  0  0  0  0  0  0  0  0
   -1.1849    1.9375   26.4529 H   0  0  0  0  0  0  0  0  0  0  0  0
   -2.0436   -2.5960   28.6193 H   0  0  0  0  0  0  0  0  0  0  0  0
    0.0898   -7.8267   34.4059 H   0  0  0  0  0  0  0  0  0  0  0  0
   -1.6186   -8.6203   32.7244 H   0  0  0  0  0  0  0  0  0  0  0  0
   -1.1851   -7.2148   29.5347 H   0  0  0  0  0  0  0  0  0  0  0  0
    0.2446   -4.0637   38.2785 H   0  0  0  0  0  0  0  0  0  0  0  0
    3.4200   -3.3103   39.5141 H   0  0  0  0  0  0  0  0  0  0  0  0
    3.8044   -3.7008   41.7996 H   0  0  0  0  0  0  0  0  0  0  0  0
    0.6736   -6.8218   43.3940 H   0  0  0  0  0  0  0  0  0  0  0  0
   -0.6197   -8.5959   42.2388 H   0  0  0  0  0  0  0  0  0  0  0  0
   -0.6442   -8.6786   39.7802 H   0  0  0  0  0  0  0  0  0  0  0  0
    0.4037   -6.8962   38.4495 H   0  0  0  0  0  0  0  0  0  0  0  0
  1  2  1  0
  2  3  1  0
  3  4  1  0
  4  5  1  0
  5  6  2  0
  6  7  1  0
  7  8  1  0
  8  9  2  3
  9 10  1  0
 10 11  1  0
 11 12  1  0
 12 13  1  0
 13 14  1  0
 14 15  1  0
 15 16  1  0
 16 17  2  0
 16 18  2  0
 16 19  1  0
 19 20  2  0
 20 21  1  0
 21 22  2  0
 22 23  1  0
 22 24  1  0
 24 25  2  0
 13 26  1  0
 26 27  2  0
 27 28  1  0
 28 29  2  0
 29 30  1  0
 30 31  1  0
 30 32  2  0
  8 33  1  0
 33 34  1  0
 34 35  2  0
 35 36  1  0
 36 37  1  0
 37 38  2  0
 37 39  1  0
 39 40  2  0
 40 41  1  0
 41 42  2  0
 42 43  1  0
 43 44  2  0
  7  3  2  0
 25 19  1  0
 32 26  1  0
 44 34  1  0
 44 39  1  0
  1 45  1  0
  1 46  1  0
  2 47  1  0
  2 48  1  0
  5 49  1  0
 10 50  1  0
 10 51  1  0
 11 52  1  0
 11 53  1  0
 12 54  1  0
 13 55  1  0
 14 56  1  0
 14 57  1  0
 15 58  1  0
 20 59  1  0
 21 60  1  0
 23 61  1  0
 23 62  1  0
 25 63  1  0
 28 64  1  0
 29 65  1  0
 31 66  1  0
 33 67  1  0
 35 68  1  0
 36 69  1  0
 40 70  1  0
 41 71  1  0
 42 72  1  0
 43 73  1  0
M  END
>  <Energy>  (86) 
25.198811623832277

>  <compound_id>  (86) 
227

>  <target_id>  (86) 
1

>  <reference_id>  (86) 
198

>  <inspiration_ids>  (86) 
[198, 150]

>  <energy_score>  (86) 
-78.17490680682428

>  <distance_score>  (86) 
1.5013561906636081

>  <path>  (86) 
/opt/xchem-fragalysis-2/maxwin/BulkDock/SCRATCH/505737/C227-P198/C227-P198.minimised.mol

>  <scratch_subdir>  (86) 
/opt/xchem-fragalysis-2/maxwin/BulkDock/SCRATCH/505737/C227-P198

>  <fragmenstein_runtime>  (86) 
19.809158086776733

>  <fragmenstein_outcome>  (86) 
too moved

>  <fragmenstein_mode>  (86) 
expansion

>  <fragmenstein_error>  (86) 


$$$$
C227-P150
     RDKit          3D

 73 77  0  0  0  0  0  0  0  0999 V2000
   -3.9916   -1.6799   35.4023 N   0  0  0  0  0  0  0  0  0  0  0  0
   -2.5783   -1.9582   35.1317 C   0  0  0  0  0  0  0  0  0  0  0  0
   -1.6926   -0.9413   35.7343 C   0  0  0  0  0  0  0  0  0  0  0  0
   -2.0070    0.3823   35.5599 O   0  0  0  0  0  0  0  0  0  0  0  0
   -1.0764    1.0369   36.3049 C   0  0  0  0  0  0  0  0  0  0  0  0
   -0.2213    0.2682   36.9410 N   0  0  0  0  0  0  0  0  0  0  0  0
   -0.5560   -1.0070   36.5160 C   0  0  0  0  0  0  0  0  0  0  0  0
    0.1100   -2.2104   37.0229 C   0  0  0  0  0  0  0  0  0  0  0  0
    0.6269   -3.0664   36.2720 N   0  0  0  0  0  0  0  0  0  0  0  0
    0.7045   -2.9456   34.8145 C   0  0  0  0  0  0  0  0  0  0  0  0
    1.9166   -3.7520   34.3123 C   0  0  0  0  0  0  0  0  0  0  0  0
    2.1552   -3.8023   32.8566 N   0  0  0  0  0  0  0  0  0  0  0  0
    1.1826   -4.5429   31.9932 C   0  0  0  0  0  0  0  0  0  0  0  0
   -0.0054   -3.6885   31.5163 C   0  0  0  0  0  0  0  0  0  0  0  0
    0.4350   -2.3181   31.1477 N   0  0  0  0  0  0  0  0  0  0  0  0
   -0.8332   -1.2091   31.1901 S   0  0  0  0  0  0  0  0  0  0  0  0
   -0.6713   -0.4651   32.4202 O   0  0  0  0  0  0  0  0  0  0  0  0
   -2.0713   -1.9046   30.9102 O   0  0  0  0  0  0  0  0  0  0  0  0
   -0.4575   -0.1514   29.8515 C   0  0  0  0  0  0  0  0  0  0  0  0
    0.3209    0.9848   30.0444 C   0  0  0  0  0  0  0  0  0  0  0  0
    0.4150    1.9102   29.0097 C   0  0  0  0  0  0  0  0  0  0  0  0
   -0.3006    1.6843   27.8429 C   0  0  0  0  0  0  0  0  0  0  0  0
   -0.3717    2.6630   26.8634 N   0  0  0  0  0  0  0  0  0  0  0  0
   -1.0134    0.5675   27.6316 N   0  0  0  0  0  0  0  0  0  0  0  0
   -1.0671   -0.3465   28.6297 C   0  0  0  0  0  0  0  0  0  0  0  0
    0.5584   -5.8570   32.4516 C   0  0  0  0  0  0  0  0  0  0  0  0
    0.1222   -5.9556   33.7204 N   0  0  0  0  0  0  0  0  0  0  0  0
   -0.7516   -6.9339   34.0073 C   0  0  0  0  0  0  0  0  0  0  0  0
   -1.2248   -7.7981   33.0641 C   0  0  0  0  0  0  0  0  0  0  0  0
   -0.6770   -7.6453   31.8263 C   0  0  0  0  0  0  0  0  0  0  0  0
   -1.0053   -8.4903   30.8235 O   0  0  0  0  0  0  0  0  0  0  0  0
    0.2124   -6.7158   31.4749 N   0  0  0  0  0  0  0  0  0  0  0  0
   -0.0260   -2.1678   38.4658 N   0  0  0  0  0  0  0  0  0  0  0  0
    0.4508   -3.0088   39.4518 C   0  0  0  0  0  0  0  0  0  0  0  0
    0.8916   -2.4717   40.6071 C   0  0  0  0  0  0  0  0  0  0  0  0
    1.3720   -3.2075   41.6523 N   0  0  0  0  0  0  0  0  0  0  0  0
    1.4551   -4.5751   41.6577 C   0  0  0  0  0  0  0  0  0  0  0  0
    1.9271   -5.1859   42.6097 O   0  0  0  0  0  0  0  0  0  0  0  0
    0.9267   -5.2616   40.4537 C   0  0  0  0  0  0  0  0  0  0  0  0
    0.9308   -6.6660   40.4444 C   0  0  0  0  0  0  0  0  0  0  0  0
    0.4254   -7.3485   39.3479 C   0  0  0  0  0  0  0  0  0  0  0  0
   -0.1083   -6.6277   38.2860 C   0  0  0  0  0  0  0  0  0  0  0  0
   -0.1420   -5.2264   38.3134 C   0  0  0  0  0  0  0  0  0  0  0  0
    0.4160   -4.5020   39.3754 C   0  0  0  0  0  0  0  0  0  0  0  0
   -4.2036   -0.7671   35.0014 H   0  0  0  0  0  0  0  0  0  0  0  0
   -4.5302   -2.3580   34.8638 H   0  0  0  0  0  0  0  0  0  0  0  0
   -2.4141   -2.0059   34.0511 H   0  0  0  0  0  0  0  0  0  0  0  0
   -2.3358   -2.9345   35.5577 H   0  0  0  0  0  0  0  0  0  0  0  0
   -1.1392    2.1159   36.3160 H   0  0  0  0  0  0  0  0  0  0  0  0
    0.8223   -1.9064   34.4887 H   0  0  0  0  0  0  0  0  0  0  0  0
   -0.2141   -3.3487   34.3871 H   0  0  0  0  0  0  0  0  0  0  0  0
    1.9309   -4.7577   34.7457 H   0  0  0  0  0  0  0  0  0  0  0  0
    2.8054   -3.2703   34.7429 H   0  0  0  0  0  0  0  0  0  0  0  0
    3.0600   -4.2618   32.7397 H   0  0  0  0  0  0  0  0  0  0  0  0
    1.7633   -4.7760   31.0895 H   0  0  0  0  0  0  0  0  0  0  0  0
   -0.7602   -3.6325   32.3092 H   0  0  0  0  0  0  0  0  0  0  0  0
   -0.4788   -4.1428   30.6366 H   0  0  0  0  0  0  0  0  0  0  0  0
    1.1684   -2.0257   31.8085 H   0  0  0  0  0  0  0  0  0  0  0  0
    0.8081    1.1821   30.9950 H   0  0  0  0  0  0  0  0  0  0  0  0
    0.9686    2.8340   29.1432 H   0  0  0  0  0  0  0  0  0  0  0  0
   -0.9714    2.3192   26.1212 H   0  0  0  0  0  0  0  0  0  0  0  0
    0.5368    2.9704   26.5427 H   0  0  0  0  0  0  0  0  0  0  0  0
   -1.6636   -1.2287   28.4073 H   0  0  0  0  0  0  0  0  0  0  0  0
   -1.0861   -6.9845   35.0381 H   0  0  0  0  0  0  0  0  0  0  0  0
   -1.9495   -8.5623   33.2898 H   0  0  0  0  0  0  0  0  0  0  0  0
   -0.3069   -8.2881   30.1754 H   0  0  0  0  0  0  0  0  0  0  0  0
   -0.4281   -1.2719   38.7318 H   0  0  0  0  0  0  0  0  0  0  0  0
    0.9175   -1.3962   40.7589 H   0  0  0  0  0  0  0  0  0  0  0  0
    1.7222   -2.7468   42.4840 H   0  0  0  0  0  0  0  0  0  0  0  0
    1.3317   -7.2200   41.2901 H   0  0  0  0  0  0  0  0  0  0  0  0
    0.4317   -8.4349   39.3206 H   0  0  0  0  0  0  0  0  0  0  0  0
   -0.5129   -7.1613   37.4302 H   0  0  0  0  0  0  0  0  0  0  0  0
   -0.6169   -4.7252   37.4776 H   0  0  0  0  0  0  0  0  0  0  0  0
  1  2  1  0
  2  3  1  0
  3  4  1  0
  4  5  1  0
  5  6  2  0
  6  7  1  0
  7  8  1  0
  8  9  2  3
  9 10  1  0
 10 11  1  0
 11 12  1  0
 12 13  1  0
 13 14  1  0
 14 15  1  0
 15 16  1  0
 16 17  2  0
 16 18  2  0
 16 19  1  0
 19 20  2  0
 20 21  1  0
 21 22  2  0
 22 23  1  0
 22 24  1  0
 24 25  2  0
 13 26  1  0
 26 27  2  0
 27 28  1  0
 28 29  2  0
 29 30  1  0
 30 31  1  0
 30 32  2  0
  8 33  1  0
 33 34  1  0
 34 35  2  0
 35 36  1  0
 36 37  1  0
 37 38  2  0
 37 39  1  0
 39 40  2  0
 40 41  1  0
 41 42  2  0
 42 43  1  0
 43 44  2  0
  7  3  2  0
 25 19  1  0
 32 26  1  0
 44 34  1  0
 44 39  1  0
  1 45  1  0
  1 46  1  0
  2 47  1  0
  2 48  1  0
  5 49  1  0
 10 50  1  0
 10 51  1  0
 11 52  1  0
 11 53  1  0
 12 54  1  0
 13 55  1  0
 14 56  1  0
 14 57  1  0
 15 58  1  0
 20 59  1  0
 21 60  1  0
 23 61  1  0
 23 62  1  0
 25 63  1  0
 28 64  1  0
 29 65  1  0
 31 66  1  0
 33 67  1  0
 35 68  1  0
 36 69  1  0
 40 70  1  0
 41 71  1  0
 42 72  1  0
 43 73  1  0
M  END
>  <Energy>  (87) 
-13.782481597929438

>  <compound_id>  (87) 
227

>  <target_id>  (87) 
1

>  <reference_id>  (87) 
150

>  <inspiration_ids>  (87) 
[198, 150]

>  <energy_score>  (87) 
-132.18565471420547

>  <distance_score>  (87) 
1.7787726738967649

>  <path>  (87) 
/opt/xchem-fragalysis-2/maxwin/BulkDock/SCRATCH/505737/C227-P150/C227-P150.minimised.mol

>  <scratch_subdir>  (87) 
/opt/xchem-fragalysis-2/maxwin/BulkDock/SCRATCH/505737/C227-P150

>  <fragmenstein_runtime>  (87) 
25.175507307052612

>  <fragmenstein_outcome>  (87) 
too moved

>  <fragmenstein_mode>  (87) 
expansion

>  <fragmenstein_error>  (87) 


$$$$
C228-P198
     RDKit          3D

 55 58  0  0  0  0  0  0  0  0999 V2000
   -2.0949    1.4394   26.6704 N   0  0  0  0  0  0  0  0  0  0  0  0
   -1.6810    0.6572   27.7339 C   0  0  0  0  0  0  0  0  0  0  0  0
   -1.0933    1.2160   28.8541 C   0  0  0  0  0  0  0  0  0  0  0  0
   -0.8246    0.3946   29.9446 C   0  0  0  0  0  0  0  0  0  0  0  0
   -1.1478   -0.9562   29.8594 C   0  0  0  0  0  0  0  0  0  0  0  0
   -0.9519   -2.0125   31.2335 S   0  0  0  0  0  0  0  0  0  0  0  0
   -1.0462   -1.2002   32.4283 O   0  0  0  0  0  0  0  0  0  0  0  0
   -1.7843   -3.1819   31.0598 O   0  0  0  0  0  0  0  0  0  0  0  0
    0.6695   -2.4103   31.1067 N   0  0  0  0  0  0  0  0  0  0  0  0
    1.1250   -3.6890   30.5600 C   0  0  0  0  0  0  0  0  0  0  0  0
    1.6375   -4.5550   31.7304 C   0  0  0  0  0  0  0  0  0  0  0  0
    0.4611   -5.0932   32.5801 C   0  0  0  0  0  0  0  0  0  0  0  0
   -0.3497   -6.0338   31.7783 N   0  0  0  0  0  0  0  0  0  0  0  0
    0.3578   -6.9304   30.9197 N   0  0  0  0  0  0  0  0  0  0  0  0
   -0.6863   -7.8615   30.5276 C   0  0  0  0  0  0  0  0  0  0  0  0
   -1.6262   -7.9344   31.6318 N   0  0  0  0  0  0  0  0  0  0  0  0
   -1.2058   -6.8879   32.5631 C   0  0  0  0  0  0  0  0  0  0  0  0
   -0.6106   -7.5559   33.7855 C   0  0  0  0  0  0  0  0  0  0  0  0
    0.7050   -6.9637   34.2558 C   0  0  0  0  0  0  0  0  0  0  0  0
    0.6810   -5.4438   34.1369 C   0  0  0  0  0  0  0  0  0  0  0  0
    1.9762   -4.8312   34.7640 C   0  0  0  0  0  0  0  0  0  0  0  0
    2.1085   -4.9618   36.2315 N   0  0  0  0  0  0  0  0  0  0  0  0
    0.9176   -4.3871   36.8738 C   0  0  0  0  0  0  0  0  0  0  0  0
   -0.3767   -5.0307   36.3587 C   0  0  0  0  0  0  0  0  0  0  0  0
   -0.5158   -4.9665   34.9012 N   0  0  0  0  0  0  0  0  0  0  0  0
   -1.7035   -1.4401   28.7002 C   0  0  0  0  0  0  0  0  0  0  0  0
   -1.9768   -0.6464   27.6453 N   0  0  0  0  0  0  0  0  0  0  0  0
   -1.3821    2.0650   26.3270 H   0  0  0  0  0  0  0  0  0  0  0  0
   -2.4687    0.7892   25.9820 H   0  0  0  0  0  0  0  0  0  0  0  0
   -0.8951    2.2819   28.8939 H   0  0  0  0  0  0  0  0  0  0  0  0
   -0.3953    0.8147   30.8489 H   0  0  0  0  0  0  0  0  0  0  0  0
    1.2521   -1.9467   31.8033 H   0  0  0  0  0  0  0  0  0  0  0  0
    0.3573   -4.1746   29.9527 H   0  0  0  0  0  0  0  0  0  0  0  0
    1.9652   -3.4745   29.8899 H   0  0  0  0  0  0  0  0  0  0  0  0
    2.2992   -3.9339   32.3428 H   0  0  0  0  0  0  0  0  0  0  0  0
    2.2675   -5.3684   31.3565 H   0  0  0  0  0  0  0  0  0  0  0  0
   -0.1964   -4.2255   32.6647 H   0  0  0  0  0  0  0  0  0  0  0  0
    0.6661   -6.4646   30.0664 H   0  0  0  0  0  0  0  0  0  0  0  0
   -0.2874   -8.8432   30.2722 H   0  0  0  0  0  0  0  0  0  0  0  0
   -1.1986   -7.4729   29.6431 H   0  0  0  0  0  0  0  0  0  0  0  0
   -2.5556   -7.6800   31.3201 H   0  0  0  0  0  0  0  0  0  0  0  0
   -2.0401   -6.2945   32.9076 H   0  0  0  0  0  0  0  0  0  0  0  0
   -0.4558   -8.5920   33.5594 H   0  0  0  0  0  0  0  0  0  0  0  0
   -1.3450   -7.5449   34.6021 H   0  0  0  0  0  0  0  0  0  0  0  0
    1.5239   -7.3397   33.6410 H   0  0  0  0  0  0  0  0  0  0  0  0
    0.9107   -7.3196   35.2714 H   0  0  0  0  0  0  0  0  0  0  0  0
    2.0236   -3.7604   34.5282 H   0  0  0  0  0  0  0  0  0  0  0  0
    2.8598   -5.2921   34.3065 H   0  0  0  0  0  0  0  0  0  0  0  0
    2.1447   -5.9523   36.4717 H   0  0  0  0  0  0  0  0  0  0  0  0
    0.9934   -4.5353   37.9566 H   0  0  0  0  0  0  0  0  0  0  0  0
    0.8960   -3.3035   36.7041 H   0  0  0  0  0  0  0  0  0  0  0  0
   -1.2365   -4.5257   36.8135 H   0  0  0  0  0  0  0  0  0  0  0  0
   -0.4323   -6.0744   36.6895 H   0  0  0  0  0  0  0  0  0  0  0  0
   -0.7326   -4.0005   34.6464 H   0  0  0  0  0  0  0  0  0  0  0  0
   -1.9773   -2.4809   28.5717 H   0  0  0  0  0  0  0  0  0  0  0  0
  1  2  1  0
  2  3  2  0
  3  4  1  0
  4  5  2  0
  5  6  1  0
  6  7  2  0
  6  8  2  0
  6  9  1  0
  9 10  1  0
 10 11  1  0
 11 12  1  0
 12 13  1  0
 13 14  1  0
 14 15  1  0
 15 16  1  0
 16 17  1  0
 17 18  1  0
 18 19  1  0
 19 20  1  0
 20 21  1  0
 21 22  1  0
 22 23  1  0
 23 24  1  0
 24 25  1  0
  5 26  1  0
 26 27  2  0
 27  2  1  0
 20 12  1  0
 17 13  1  0
 25 20  1  0
  1 28  1  0
  1 29  1  0
  3 30  1  0
  4 31  1  0
  9 32  1  0
 10 33  1  0
 10 34  1  0
 11 35  1  0
 11 36  1  0
 12 37  1  0
 14 38  1  0
 15 39  1  0
 15 40  1  0
 16 41  1  0
 17 42  1  0
 18 43  1  0
 18 44  1  0
 19 45  1  0
 19 46  1  0
 21 47  1  0
 21 48  1  0
 22 49  1  0
 23 50  1  0
 23 51  1  0
 24 52  1  0
 24 53  1  0
 25 54  1  0
 26 55  1  0
M  END
>  <Energy>  (88) 
5.9900098739793473

>  <compound_id>  (88) 
228

>  <target_id>  (88) 
1

>  <reference_id>  (88) 
198

>  <inspiration_ids>  (88) 
[198, 152]

>  <energy_score>  (88) 
-360.0780044585073

>  <distance_score>  (88) 
1.598123860856377

>  <path>  (88) 
/opt/xchem-fragalysis-2/maxwin/BulkDock/SCRATCH/505737/C228-P198/C228-P198.minimised.mol

>  <scratch_subdir>  (88) 
/opt/xchem-fragalysis-2/maxwin/BulkDock/SCRATCH/505737/C228-P198

>  <fragmenstein_runtime>  (88) 
4.957056999206543

>  <fragmenstein_outcome>  (88) 
too moved

>  <fragmenstein_mode>  (88) 
expansion

>  <fragmenstein_error>  (88) 


$$$$
C228-P152
     RDKit          3D

 55 58  0  0  0  0  0  0  0  0999 V2000
   -1.6804    1.3685   26.6956 N   0  0  0  0  0  0  0  0  0  0  0  0
   -1.3235    0.5657   27.7663 C   0  0  0  0  0  0  0  0  0  0  0  0
   -0.8291    1.1075   28.9372 C   0  0  0  0  0  0  0  0  0  0  0  0
   -0.6672    0.2712   30.0379 C   0  0  0  0  0  0  0  0  0  0  0  0
   -1.0027   -1.0747   29.9184 C   0  0  0  0  0  0  0  0  0  0  0  0
   -1.0397   -2.1022   31.3323 S   0  0  0  0  0  0  0  0  0  0  0  0
   -1.3958   -1.2601   32.4533 O   0  0  0  0  0  0  0  0  0  0  0  0
   -1.7689   -3.3196   31.0417 O   0  0  0  0  0  0  0  0  0  0  0  0
    0.5731   -2.4569   31.5318 N   0  0  0  0  0  0  0  0  0  0  0  0
    1.2155   -3.5857   30.8733 C   0  0  0  0  0  0  0  0  0  0  0  0
    1.6908   -4.5635   31.9585 C   0  0  0  0  0  0  0  0  0  0  0  0
    0.5284   -5.2719   32.7049 C   0  0  0  0  0  0  0  0  0  0  0  0
    0.2887   -6.5963   32.1130 N   0  0  0  0  0  0  0  0  0  0  0  0
    0.0955   -6.5633   30.6802 N   0  0  0  0  0  0  0  0  0  0  0  0
   -0.6785   -7.7739   30.4301 C   0  0  0  0  0  0  0  0  0  0  0  0
   -1.2978   -8.1767   31.6869 N   0  0  0  0  0  0  0  0  0  0  0  0
   -0.9844   -7.1027   32.5983 C   0  0  0  0  0  0  0  0  0  0  0  0
   -0.8751   -7.4622   34.0575 C   0  0  0  0  0  0  0  0  0  0  0  0
   -0.5289   -6.2224   34.8687 C   0  0  0  0  0  0  0  0  0  0  0  0
    0.6546   -5.3713   34.3039 C   0  0  0  0  0  0  0  0  0  0  0  0
    2.0013   -5.9773   34.8288 C   0  0  0  0  0  0  0  0  0  0  0  0
    2.1866   -5.9199   36.2995 N   0  0  0  0  0  0  0  0  0  0  0  0
    1.9346   -4.5619   36.8062 C   0  0  0  0  0  0  0  0  0  0  0  0
    0.6198   -3.9435   36.3063 C   0  0  0  0  0  0  0  0  0  0  0  0
    0.5241   -3.9833   34.8404 N   0  0  0  0  0  0  0  0  0  0  0  0
   -1.4253   -1.5479   28.7008 C   0  0  0  0  0  0  0  0  0  0  0  0
   -1.5909   -0.7405   27.6316 N   0  0  0  0  0  0  0  0  0  0  0  0
   -0.9407    1.9886   26.4000 H   0  0  0  0  0  0  0  0  0  0  0  0
   -2.0189    0.7324   25.9772 H   0  0  0  0  0  0  0  0  0  0  0  0
   -0.6397    2.1732   29.0126 H   0  0  0  0  0  0  0  0  0  0  0  0
   -0.3288    0.6804   30.9853 H   0  0  0  0  0  0  0  0  0  0  0  0
    0.9834   -2.0576   32.3743 H   0  0  0  0  0  0  0  0  0  0  0  0
    0.5752   -4.0410   30.1174 H   0  0  0  0  0  0  0  0  0  0  0  0
    2.0927   -3.1998   30.3414 H   0  0  0  0  0  0  0  0  0  0  0  0
    2.3207   -4.0137   32.6669 H   0  0  0  0  0  0  0  0  0  0  0  0
    2.3516   -5.2952   31.4888 H   0  0  0  0  0  0  0  0  0  0  0  0
   -0.3725   -4.6695   32.5463 H   0  0  0  0  0  0  0  0  0  0  0  0
   -0.5160   -5.7835   30.4194 H   0  0  0  0  0  0  0  0  0  0  0  0
   -0.0407   -8.5678   30.0354 H   0  0  0  0  0  0  0  0  0  0  0  0
   -1.4185   -7.5362   29.6661 H   0  0  0  0  0  0  0  0  0  0  0  0
   -2.3102   -8.2458   31.6369 H   0  0  0  0  0  0  0  0  0  0  0  0
   -1.7577   -6.3393   32.4902 H   0  0  0  0  0  0  0  0  0  0  0  0
   -0.0909   -8.1904   34.2300 H   0  0  0  0  0  0  0  0  0  0  0  0
   -1.8134   -7.8939   34.4234 H   0  0  0  0  0  0  0  0  0  0  0  0
   -0.3630   -6.5381   35.9043 H   0  0  0  0  0  0  0  0  0  0  0  0
   -1.4139   -5.5981   34.9198 H   0  0  0  0  0  0  0  0  0  0  0  0
    2.8523   -5.4627   34.3679 H   0  0  0  0  0  0  0  0  0  0  0  0
    2.0798   -7.0249   34.5296 H   0  0  0  0  0  0  0  0  0  0  0  0
    1.5199   -6.5523   36.7420 H   0  0  0  0  0  0  0  0  0  0  0  0
    1.9333   -4.5874   37.9015 H   0  0  0  0  0  0  0  0  0  0  0  0
    2.7749   -3.9206   36.5119 H   0  0  0  0  0  0  0  0  0  0  0  0
    0.5768   -2.8957   36.6250 H   0  0  0  0  0  0  0  0  0  0  0  0
   -0.2423   -4.4331   36.7723 H   0  0  0  0  0  0  0  0  0  0  0  0
    1.2988   -3.4280   34.4830 H   0  0  0  0  0  0  0  0  0  0  0  0
   -1.6917   -2.5851   28.5324 H   0  0  0  0  0  0  0  0  0  0  0  0
  1  2  1  0
  2  3  2  0
  3  4  1  0
  4  5  2  0
  5  6  1  0
  6  7  2  0
  6  8  2  0
  6  9  1  0
  9 10  1  0
 10 11  1  0
 11 12  1  0
 12 13  1  0
 13 14  1  0
 14 15  1  0
 15 16  1  0
 16 17  1  0
 17 18  1  0
 18 19  1  0
 19 20  1  0
 20 21  1  0
 21 22  1  0
 22 23  1  0
 23 24  1  0
 24 25  1  0
  5 26  1  0
 26 27  2  0
 27  2  1  0
 20 12  1  0
 17 13  1  0
 25 20  1  0
  1 28  1  0
  1 29  1  0
  3 30  1  0
  4 31  1  0
  9 32  1  0
 10 33  1  0
 10 34  1  0
 11 35  1  0
 11 36  1  0
 12 37  1  0
 14 38  1  0
 15 39  1  0
 15 40  1  0
 16 41  1  0
 17 42  1  0
 18 43  1  0
 18 44  1  0
 19 45  1  0
 19 46  1  0
 21 47  1  0
 21 48  1  0
 22 49  1  0
 23 50  1  0
 23 51  1  0
 24 52  1  0
 24 53  1  0
 25 54  1  0
 26 55  1  0
M  END
>  <Energy>  (89) 
-8.71169572035625

>  <compound_id>  (89) 
228

>  <target_id>  (89) 
1

>  <reference_id>  (89) 
152

>  <inspiration_ids>  (89) 
[198, 152]

>  <energy_score>  (89) 
-374.77971005284337

>  <distance_score>  (89) 
1.5350146856040814

>  <path>  (89) 
/opt/xchem-fragalysis-2/maxwin/BulkDock/SCRATCH/505737/C228-P152/C228-P152.minimised.mol

>  <scratch_subdir>  (89) 
/opt/xchem-fragalysis-2/maxwin/BulkDock/SCRATCH/505737/C228-P152

>  <fragmenstein_runtime>  (89) 
3.9698002338409424

>  <fragmenstein_outcome>  (89) 
too moved

>  <fragmenstein_mode>  (89) 
expansion

>  <fragmenstein_error>  (89) 


$$$$
C228-P198
     RDKit          2D

  0  0  0  0  0  0  0  0  0  0999 V2000
M  END
>  <compound_id>  (90) 
228

>  <target_id>  (90) 
1

>  <reference_id>  (90) 
198

>  <inspiration_ids>  (90) 
[198, 154]

>  <energy_score>  (90) 
nan

>  <distance_score>  (90) 
nan

>  <path>  (90) 
/opt/xchem-fragalysis-2/maxwin/BulkDock/SCRATCH/505737/C228-P198/C228-P198.minimised.mol

>  <scratch_subdir>  (90) 
/opt/xchem-fragalysis-2/maxwin/BulkDock/SCRATCH/505737/C228-P198

>  <fragmenstein_runtime>  (90) 
0.6062207221984863

>  <fragmenstein_outcome>  (90) 
too distant

>  <fragmenstein_mode>  (90) 
expansion

>  <fragmenstein_error>  (90) 
DistanceError: hit1

$$$$
C230-P198
     RDKit          3D

 58 59  0  0  0  0  0  0  0  0999 V2000
   -0.1995   -5.9490   35.2218 C   0  0  0  0  0  0  0  0  0  0  0  0
   -0.0417   -6.8114   33.9597 C   0  0  0  0  0  0  0  0  0  0  0  0
   -1.4004   -6.9844   33.2915 C   0  0  0  0  0  0  0  0  0  0  0  0
   -1.5064   -8.1195   32.3678 N   0  0  0  0  0  0  0  0  0  0  0  0
    1.1131   -6.3128   33.0580 C   0  0  0  0  0  0  0  0  0  0  0  0
    1.4393   -4.9490   33.0371 N   0  0  0  0  0  0  0  0  0  0  0  0
    2.3042   -4.1170   33.9976 C   0  0  0  0  0  0  0  0  0  0  0  0
    2.8059   -4.4089   34.9743 O   0  0  0  0  0  0  0  0  0  0  0  0
    2.2636   -2.7569   33.2621 N   0  0  0  0  0  0  0  0  0  0  0  0
    2.7356   -1.5496   33.6329 C   0  0  0  0  0  0  0  0  0  0  0  0
    3.5367   -1.2209   34.7318 C   0  0  0  0  0  0  0  0  0  0  0  0
    3.7476    0.0928   34.8013 N   0  0  0  0  0  0  0  0  0  0  0  0
    3.0764    0.5779   33.7450 N   0  0  0  0  0  0  0  0  0  0  0  0
    2.4732   -0.3736   32.9864 C   0  0  0  0  0  0  0  0  0  0  0  0
    1.1564   -6.8259   31.7289 N   0  0  0  0  0  0  0  0  0  0  0  0
    0.7955   -6.3332   30.4448 C   0  0  0  0  0  0  0  0  0  0  0  0
   -0.3572   -7.1126   30.0721 N   0  0  0  0  0  0  0  0  0  0  0  0
    0.7427   -4.8660   30.0564 C   0  0  0  0  0  0  0  0  0  0  0  0
   -0.5154   -4.1815   30.5074 C   0  0  0  0  0  0  0  0  0  0  0  0
   -0.2152   -3.1312   31.5088 N   0  0  0  0  0  0  0  0  0  0  0  0
   -1.4224   -1.9415   31.5557 S   0  0  0  0  0  0  0  0  0  0  0  0
   -1.1076   -1.1465   32.7190 O   0  0  0  0  0  0  0  0  0  0  0  0
   -2.6725   -2.6620   31.4456 O   0  0  0  0  0  0  0  0  0  0  0  0
   -1.1984   -0.9246   30.1592 C   0  0  0  0  0  0  0  0  0  0  0  0
   -2.0386    0.1622   30.0262 C   0  0  0  0  0  0  0  0  0  0  0  0
   -1.8844    1.0192   28.9444 C   0  0  0  0  0  0  0  0  0  0  0  0
   -0.8687    0.7917   28.0488 C   0  0  0  0  0  0  0  0  0  0  0  0
   -0.7002    1.6595   26.9761 N   0  0  0  0  0  0  0  0  0  0  0  0
   -0.0344   -0.2534   28.1639 N   0  0  0  0  0  0  0  0  0  0  0  0
   -0.2184   -1.0999   29.2107 C   0  0  0  0  0  0  0  0  0  0  0  0
   -0.5201   -4.9312   34.9760 H   0  0  0  0  0  0  0  0  0  0  0  0
   -0.9481   -6.3792   35.8964 H   0  0  0  0  0  0  0  0  0  0  0  0
    0.7396   -5.8992   35.7811 H   0  0  0  0  0  0  0  0  0  0  0  0
    0.2484   -7.8050   34.3240 H   0  0  0  0  0  0  0  0  0  0  0  0
   -2.1246   -7.1658   34.0898 H   0  0  0  0  0  0  0  0  0  0  0  0
   -1.6723   -6.0592   32.7848 H   0  0  0  0  0  0  0  0  0  0  0  0
   -2.4968   -8.2740   32.1423 H   0  0  0  0  0  0  0  0  0  0  0  0
   -1.2802   -8.9553   32.9194 H   0  0  0  0  0  0  0  0  0  0  0  0
    1.9943   -6.7434   33.5528 H   0  0  0  0  0  0  0  0  0  0  0  0
    1.2242   -4.4113   32.2319 H   0  0  0  0  0  0  0  0  0  0  0  0
    1.6610   -2.8239   32.4598 H   0  0  0  0  0  0  0  0  0  0  0  0
    3.9573   -1.8705   35.4891 H   0  0  0  0  0  0  0  0  0  0  0  0
    3.0856    1.5817   33.5979 H   0  0  0  0  0  0  0  0  0  0  0  0
    1.9003   -0.1214   32.1068 H   0  0  0  0  0  0  0  0  0  0  0  0
    0.8731   -7.8015   31.7672 H   0  0  0  0  0  0  0  0  0  0  0  0
    1.5641   -6.6765   29.7505 H   0  0  0  0  0  0  0  0  0  0  0  0
   -0.0547   -8.0695   29.8765 H   0  0  0  0  0  0  0  0  0  0  0  0
   -0.9333   -7.2485   30.9131 H   0  0  0  0  0  0  0  0  0  0  0  0
    1.6599   -4.3412   30.3501 H   0  0  0  0  0  0  0  0  0  0  0  0
    0.7633   -4.8062   28.9603 H   0  0  0  0  0  0  0  0  0  0  0  0
   -1.0143   -3.7601   29.6290 H   0  0  0  0  0  0  0  0  0  0  0  0
   -1.2063   -4.8700   30.9920 H   0  0  0  0  0  0  0  0  0  0  0  0
   -0.2755   -3.4884   32.4755 H   0  0  0  0  0  0  0  0  0  0  0  0
   -2.8315    0.3250   30.7460 H   0  0  0  0  0  0  0  0  0  0  0  0
   -2.5483    1.8609   28.7882 H   0  0  0  0  0  0  0  0  0  0  0  0
    0.1926    1.4145   26.5651 H   0  0  0  0  0  0  0  0  0  0  0  0
   -0.7340    2.6316   27.2654 H   0  0  0  0  0  0  0  0  0  0  0  0
    0.5003   -1.9094   29.2465 H   0  0  0  0  0  0  0  0  0  0  0  0
  1  2  1  0
  2  3  1  0
  3  4  1  0
  2  5  1  0
  5  6  1  0
  6  7  1  0
  7  8  2  0
  7  9  1  0
  9 10  1  0
 10 11  1  0
 11 12  2  0
 12 13  1  0
 13 14  1  0
  5 15  1  0
 15 16  1  0
 16 17  1  0
 16 18  1  0
 18 19  1  0
 19 20  1  0
 20 21  1  0
 21 22  2  0
 21 23  2  0
 21 24  1  0
 24 25  2  0
 25 26  1  0
 26 27  2  0
 27 28  1  0
 27 29  1  0
 29 30  2  0
 14 10  2  0
 30 24  1  0
  1 31  1  0
  1 32  1  0
  1 33  1  0
  2 34  1  0
  3 35  1  0
  3 36  1  0
  4 37  1  0
  4 38  1  0
  5 39  1  0
  6 40  1  0
  9 41  1  0
 11 42  1  0
 13 43  1  0
 14 44  1  0
 15 45  1  0
 16 46  1  0
 17 47  1  0
 17 48  1  0
 18 49  1  0
 18 50  1  0
 19 51  1  0
 19 52  1  0
 20 53  1  0
 25 54  1  0
 26 55  1  0
 28 56  1  0
 28 57  1  0
 30 58  1  0
M  END
>  <Energy>  (91) 
-192.96692466891446

>  <compound_id>  (91) 
230

>  <target_id>  (91) 
1

>  <reference_id>  (91) 
198

>  <inspiration_ids>  (91) 
[198, 156]

>  <energy_score>  (91) 
-40.0396143869709

>  <distance_score>  (91) 
1.5819546480129534

>  <path>  (91) 
/opt/xchem-fragalysis-2/maxwin/BulkDock/SCRATCH/505737/C230-P198/C230-P198.minimised.mol

>  <scratch_subdir>  (91) 
/opt/xchem-fragalysis-2/maxwin/BulkDock/SCRATCH/505737/C230-P198

>  <fragmenstein_runtime>  (91) 
7.835711717605591

>  <fragmenstein_outcome>  (91) 
too moved

>  <fragmenstein_mode>  (91) 
expansion

>  <fragmenstein_error>  (91) 


$$$$
C230-P156
     RDKit          3D

 58 59  0  0  0  0  0  0  0  0999 V2000
   -1.0756   -6.2482   34.5305 C   0  0  0  0  0  0  0  0  0  0  0  0
   -0.2249   -7.0577   33.5742 C   0  0  0  0  0  0  0  0  0  0  0  0
   -0.9876   -7.5393   32.3405 C   0  0  0  0  0  0  0  0  0  0  0  0
   -1.9734   -8.5585   32.5823 N   0  0  0  0  0  0  0  0  0  0  0  0
    1.1450   -6.4124   33.2446 C   0  0  0  0  0  0  0  0  0  0  0  0
    1.6633   -5.2562   33.8838 N   0  0  0  0  0  0  0  0  0  0  0  0
    1.0471   -3.8642   34.0726 C   0  0  0  0  0  0  0  0  0  0  0  0
    0.0146   -3.4783   33.8092 O   0  0  0  0  0  0  0  0  0  0  0  0
    2.2770   -3.1192   34.6307 N   0  0  0  0  0  0  0  0  0  0  0  0
    2.4702   -1.8025   34.8649 C   0  0  0  0  0  0  0  0  0  0  0  0
    3.6727   -1.1195   35.0804 C   0  0  0  0  0  0  0  0  0  0  0  0
    3.4850    0.1996   35.0975 N   0  0  0  0  0  0  0  0  0  0  0  0
    2.1600    0.3385   34.9138 N   0  0  0  0  0  0  0  0  0  0  0  0
    1.5023   -0.8389   34.7828 C   0  0  0  0  0  0  0  0  0  0  0  0
    1.8120   -6.3968   31.9667 N   0  0  0  0  0  0  0  0  0  0  0  0
    1.4291   -5.8319   30.6991 C   0  0  0  0  0  0  0  0  0  0  0  0
    0.3460   -6.5481   30.0997 N   0  0  0  0  0  0  0  0  0  0  0  0
    1.3566   -4.3309   30.5966 C   0  0  0  0  0  0  0  0  0  0  0  0
   -0.0446   -3.8346   30.7924 C   0  0  0  0  0  0  0  0  0  0  0  0
    0.0367   -2.4841   31.3356 N   0  0  0  0  0  0  0  0  0  0  0  0
   -1.4258   -1.6829   31.3853 S   0  0  0  0  0  0  0  0  0  0  0  0
   -1.3512   -0.7621   32.4990 O   0  0  0  0  0  0  0  0  0  0  0  0
   -2.4915   -2.6538   31.2632 O   0  0  0  0  0  0  0  0  0  0  0  0
   -1.2728   -0.7481   29.9190 C   0  0  0  0  0  0  0  0  0  0  0  0
   -0.8043    0.5580   29.9526 C   0  0  0  0  0  0  0  0  0  0  0  0
   -0.8834    1.3260   28.7963 C   0  0  0  0  0  0  0  0  0  0  0  0
   -1.4149    0.7494   27.6590 C   0  0  0  0  0  0  0  0  0  0  0  0
   -1.7382    1.5115   26.5513 N   0  0  0  0  0  0  0  0  0  0  0  0
   -1.7644   -0.5417   27.5961 N   0  0  0  0  0  0  0  0  0  0  0  0
   -1.6853   -1.2781   28.7210 C   0  0  0  0  0  0  0  0  0  0  0  0
   -1.4317   -5.3536   34.0271 H   0  0  0  0  0  0  0  0  0  0  0  0
   -1.9354   -6.8284   34.8756 H   0  0  0  0  0  0  0  0  0  0  0  0
   -0.5148   -5.9558   35.4240 H   0  0  0  0  0  0  0  0  0  0  0  0
    0.0096   -7.9601   34.1515 H   0  0  0  0  0  0  0  0  0  0  0  0
   -1.4524   -6.6958   31.8284 H   0  0  0  0  0  0  0  0  0  0  0  0
   -0.2919   -8.0588   31.6909 H   0  0  0  0  0  0  0  0  0  0  0  0
   -2.8598   -8.4030   32.1075 H   0  0  0  0  0  0  0  0  0  0  0  0
   -2.1522   -8.7130   33.5730 H   0  0  0  0  0  0  0  0  0  0  0  0
    1.7777   -7.1400   33.7714 H   0  0  0  0  0  0  0  0  0  0  0  0
    2.5741   -5.2809   34.3017 H   0  0  0  0  0  0  0  0  0  0  0  0
    3.0587   -3.7442   34.6741 H   0  0  0  0  0  0  0  0  0  0  0  0
    4.6766   -1.5065   35.1893 H   0  0  0  0  0  0  0  0  0  0  0  0
    1.7739    1.2769   34.8904 H   0  0  0  0  0  0  0  0  0  0  0  0
    0.4351   -0.8798   34.6096 H   0  0  0  0  0  0  0  0  0  0  0  0
    2.7094   -5.9676   32.1768 H   0  0  0  0  0  0  0  0  0  0  0  0
    2.2844   -6.0487   30.0467 H   0  0  0  0  0  0  0  0  0  0  0  0
    0.1322   -6.1833   29.1709 H   0  0  0  0  0  0  0  0  0  0  0  0
    0.6067   -7.5257   29.9868 H   0  0  0  0  0  0  0  0  0  0  0  0
    2.0642   -3.8705   31.2984 H   0  0  0  0  0  0  0  0  0  0  0  0
    1.6974   -4.0077   29.6022 H   0  0  0  0  0  0  0  0  0  0  0  0
   -0.5691   -3.8437   29.8314 H   0  0  0  0  0  0  0  0  0  0  0  0
   -0.5978   -4.4599   31.5002 H   0  0  0  0  0  0  0  0  0  0  0  0
    0.4056   -2.4363   32.2912 H   0  0  0  0  0  0  0  0  0  0  0  0
   -0.4313    0.9947   30.8735 H   0  0  0  0  0  0  0  0  0  0  0  0
   -0.6099    2.3757   28.8039 H   0  0  0  0  0  0  0  0  0  0  0  0
   -2.1114    0.8558   25.8693 H   0  0  0  0  0  0  0  0  0  0  0  0
   -0.9835    2.0971   26.2276 H   0  0  0  0  0  0  0  0  0  0  0  0
   -2.0246   -2.3020   28.6181 H   0  0  0  0  0  0  0  0  0  0  0  0
  1  2  1  0
  2  3  1  0
  3  4  1  0
  2  5  1  0
  5  6  1  0
  6  7  1  0
  7  8  2  0
  7  9  1  0
  9 10  1  0
 10 11  1  0
 11 12  2  0
 12 13  1  0
 13 14  1  0
  5 15  1  0
 15 16  1  0
 16 17  1  0
 16 18  1  0
 18 19  1  0
 19 20  1  0
 20 21  1  0
 21 22  2  0
 21 23  2  0
 21 24  1  0
 24 25  2  0
 25 26  1  0
 26 27  2  0
 27 28  1  0
 27 29  1  0
 29 30  2  0
 14 10  2  0
 30 24  1  0
  1 31  1  0
  1 32  1  0
  1 33  1  0
  2 34  1  0
  3 35  1  0
  3 36  1  0
  4 37  1  0
  4 38  1  0
  5 39  1  0
  6 40  1  0
  9 41  1  0
 11 42  1  0
 13 43  1  0
 14 44  1  0
 15 45  1  0
 16 46  1  0
 17 47  1  0
 17 48  1  0
 18 49  1  0
 18 50  1  0
 19 51  1  0
 19 52  1  0
 20 53  1  0
 25 54  1  0
 26 55  1  0
 28 56  1  0
 28 57  1  0
 30 58  1  0
M  END
>  <Energy>  (92) 
-180.70308728402924

>  <compound_id>  (92) 
230

>  <target_id>  (92) 
1

>  <reference_id>  (92) 
156

>  <inspiration_ids>  (92) 
[198, 156]

>  <energy_score>  (92) 
-27.7757770020854

>  <distance_score>  (92) 
1.6767601119351816

>  <path>  (92) 
/opt/xchem-fragalysis-2/maxwin/BulkDock/SCRATCH/505737/C230-P156/C230-P156.minimised.mol

>  <scratch_subdir>  (92) 
/opt/xchem-fragalysis-2/maxwin/BulkDock/SCRATCH/505737/C230-P156

>  <fragmenstein_runtime>  (92) 
8.274133443832397

>  <fragmenstein_outcome>  (92) 
too moved

>  <fragmenstein_mode>  (92) 
expansion

>  <fragmenstein_error>  (92) 


$$$$
C231-P198
     RDKit          3D

 54 57  0  0  0  0  0  0  0  0999 V2000
   -0.1621   -3.8938   28.4527 C   0  0  0  0  0  0  0  0  0  0  0  0
   -0.0469   -4.1530   29.7469 C   0  0  0  0  0  0  0  0  0  0  0  0
    1.1996   -3.7476   30.4540 C   0  0  0  0  0  0  0  0  0  0  0  0
    1.9027   -4.9711   31.0825 C   0  0  0  0  0  0  0  0  0  0  0  0
    0.9778   -6.0293   31.5925 C   0  0  0  0  0  0  0  0  0  0  0  0
    0.3668   -6.9338   30.8427 N   0  0  0  0  0  0  0  0  0  0  0  0
   -0.5106   -7.5519   31.6702 C   0  0  0  0  0  0  0  0  0  0  0  0
   -1.2700   -8.5802   31.2870 O   0  0  0  0  0  0  0  0  0  0  0  0
   -0.4278   -7.0677   32.9474 C   0  0  0  0  0  0  0  0  0  0  0  0
   -1.0478   -7.3180   34.1951 C   0  0  0  0  0  0  0  0  0  0  0  0
   -0.5695   -6.7104   35.2965 C   0  0  0  0  0  0  0  0  0  0  0  0
    0.5812   -5.8177   35.2379 C   0  0  0  0  0  0  0  0  0  0  0  0
    1.1657   -5.5906   34.0552 C   0  0  0  0  0  0  0  0  0  0  0  0
    0.6302   -6.1724   32.9152 N   0  0  0  0  0  0  0  0  0  0  0  0
    1.0060   -2.3814   31.2639 C   0  0  0  0  0  0  0  0  0  0  0  0
    1.3135   -2.5372   32.7697 C   0  0  0  0  0  0  0  0  0  0  0  0
    1.0084   -1.3676   33.5229 O   0  0  0  0  0  0  0  0  0  0  0  0
    1.8608   -1.3627   30.6322 N   0  0  0  0  0  0  0  0  0  0  0  0
    1.0676   -0.9989   29.4563 N   0  0  0  0  0  0  0  0  0  0  0  0
   -0.2738   -0.7877   30.0191 C   0  0  0  0  0  0  0  0  0  0  0  0
   -0.3752    0.6987   30.4348 C   0  0  0  0  0  0  0  0  0  0  0  0
   -0.4272    1.6099   29.1852 C   0  0  0  0  0  0  0  0  0  0  0  0
   -1.5761    1.2103   28.2571 C   0  0  0  0  0  0  0  0  0  0  0  0
   -1.5297    1.8865   26.9949 N   0  0  0  0  0  0  0  0  0  0  0  0
   -1.5610   -0.1752   27.8880 N   0  0  0  0  0  0  0  0  0  0  0  0
   -1.5047   -1.0264   29.0742 C   0  0  0  0  0  0  0  0  0  0  0  0
   -0.3218   -1.6922   31.1871 N   0  0  0  0  0  0  0  0  0  0  0  0
   -1.0698   -4.1308   27.9288 H   0  0  0  0  0  0  0  0  0  0  0  0
    0.6226   -3.3689   27.9260 H   0  0  0  0  0  0  0  0  0  0  0  0
   -0.8540   -4.6209   30.2927 H   0  0  0  0  0  0  0  0  0  0  0  0
    1.9279   -3.4996   29.6633 H   0  0  0  0  0  0  0  0  0  0  0  0
    2.4910   -5.4526   30.2869 H   0  0  0  0  0  0  0  0  0  0  0  0
    2.6490   -4.6726   31.8225 H   0  0  0  0  0  0  0  0  0  0  0  0
   -0.7697   -8.9978   30.5590 H   0  0  0  0  0  0  0  0  0  0  0  0
   -1.8781   -8.0123   34.2471 H   0  0  0  0  0  0  0  0  0  0  0  0
   -1.0053   -6.8925   36.2719 H   0  0  0  0  0  0  0  0  0  0  0  0
    0.9524   -5.3821   36.1601 H   0  0  0  0  0  0  0  0  0  0  0  0
    2.0436   -4.9669   33.9685 H   0  0  0  0  0  0  0  0  0  0  0  0
    0.6612   -3.3051   33.1794 H   0  0  0  0  0  0  0  0  0  0  0  0
    2.3613   -2.7861   32.9561 H   0  0  0  0  0  0  0  0  0  0  0  0
    0.4141   -0.8609   32.9291 H   0  0  0  0  0  0  0  0  0  0  0  0
    2.7735   -1.7431   30.3798 H   0  0  0  0  0  0  0  0  0  0  0  0
    1.4201   -0.1492   29.0169 H   0  0  0  0  0  0  0  0  0  0  0  0
    0.4639    1.0069   31.0716 H   0  0  0  0  0  0  0  0  0  0  0  0
   -1.2802    0.8358   31.0373 H   0  0  0  0  0  0  0  0  0  0  0  0
   -0.5389    2.6555   29.4933 H   0  0  0  0  0  0  0  0  0  0  0  0
    0.5283    1.5769   28.6479 H   0  0  0  0  0  0  0  0  0  0  0  0
   -2.5181    1.4629   28.7489 H   0  0  0  0  0  0  0  0  0  0  0  0
   -2.3102    1.5175   26.4520 H   0  0  0  0  0  0  0  0  0  0  0  0
   -0.6847    1.6206   26.5096 H   0  0  0  0  0  0  0  0  0  0  0  0
   -0.7660   -0.4024   27.2940 H   0  0  0  0  0  0  0  0  0  0  0  0
   -2.4174   -0.8665   29.6626 H   0  0  0  0  0  0  0  0  0  0  0  0
   -1.5885   -2.0523   28.7387 H   0  0  0  0  0  0  0  0  0  0  0  0
   -1.0276   -2.4007   31.0146 H   0  0  0  0  0  0  0  0  0  0  0  0
  1  2  2  0
  2  3  1  0
  3  4  1  0
  4  5  1  0
  5  6  2  0
  6  7  1  0
  7  8  1  0
  7  9  2  0
  9 10  1  0
 10 11  2  0
 11 12  1  0
 12 13  2  0
 13 14  1  0
  3 15  1  0
 15 16  1  0
 16 17  1  0
 15 18  1  0
 18 19  1  0
 19 20  1  0
 20 21  1  0
 21 22  1  0
 22 23  1  0
 23 24  1  0
 23 25  1  0
 25 26  1  0
 20 27  1  0
 14  5  1  0
 27 15  1  0
 14  9  1  0
 26 20  1  0
  1 28  1  0
  1 29  1  0
  2 30  1  0
  3 31  1  0
  4 32  1  0
  4 33  1  0
  8 34  1  0
 10 35  1  0
 11 36  1  0
 12 37  1  0
 13 38  1  0
 16 39  1  0
 16 40  1  0
 17 41  1  0
 18 42  1  0
 19 43  1  0
 21 44  1  0
 21 45  1  0
 22 46  1  0
 22 47  1  0
 23 48  1  0
 24 49  1  0
 24 50  1  0
 25 51  1  0
 26 52  1  0
 26 53  1  0
 27 54  1  0
M  END
>  <Energy>  (93) 
59.855196137046008

>  <compound_id>  (93) 
231

>  <target_id>  (93) 
1

>  <reference_id>  (93) 
198

>  <inspiration_ids>  (93) 
[198, 157]

>  <energy_score>  (93) 
-82.33568619805186

>  <distance_score>  (93) 
1.3324868343918492

>  <path>  (93) 
/opt/xchem-fragalysis-2/maxwin/BulkDock/SCRATCH/505737/C231-P198/C231-P198.minimised.mol

>  <scratch_subdir>  (93) 
/opt/xchem-fragalysis-2/maxwin/BulkDock/SCRATCH/505737/C231-P198

>  <fragmenstein_runtime>  (93) 
3.025697946548462

>  <fragmenstein_outcome>  (93) 
too moved

>  <fragmenstein_mode>  (93) 
expansion

>  <fragmenstein_error>  (93) 


$$$$
C231-P157
     RDKit          3D

 54 57  0  0  0  0  0  0  0  0999 V2000
   -0.3600   -4.3020   28.7222 C   0  0  0  0  0  0  0  0  0  0  0  0
   -0.2029   -4.1140   30.0242 C   0  0  0  0  0  0  0  0  0  0  0  0
    1.1195   -3.6372   30.5235 C   0  0  0  0  0  0  0  0  0  0  0  0
    1.9311   -4.8413   31.0827 C   0  0  0  0  0  0  0  0  0  0  0  0
    1.0765   -5.9889   31.5602 C   0  0  0  0  0  0  0  0  0  0  0  0
    0.5092   -6.8983   30.7784 N   0  0  0  0  0  0  0  0  0  0  0  0
   -0.3875   -7.5459   31.5663 C   0  0  0  0  0  0  0  0  0  0  0  0
   -1.1242   -8.5805   31.1519 O   0  0  0  0  0  0  0  0  0  0  0  0
   -0.3417   -7.0939   32.8559 C   0  0  0  0  0  0  0  0  0  0  0  0
   -0.9862   -7.3987   34.0792 C   0  0  0  0  0  0  0  0  0  0  0  0
   -0.5470   -6.8175   35.2106 C   0  0  0  0  0  0  0  0  0  0  0  0
    0.5844   -5.8966   35.2035 C   0  0  0  0  0  0  0  0  0  0  0  0
    1.1946   -5.6223   34.0429 C   0  0  0  0  0  0  0  0  0  0  0  0
    0.7014   -6.1795   32.8725 N   0  0  0  0  0  0  0  0  0  0  0  0
    0.9568   -2.3264   31.3910 C   0  0  0  0  0  0  0  0  0  0  0  0
    0.9105   -2.6261   32.9086 C   0  0  0  0  0  0  0  0  0  0  0  0
    0.5811   -1.4794   33.6875 O   0  0  0  0  0  0  0  0  0  0  0  0
    2.0264   -1.3666   31.0872 N   0  0  0  0  0  0  0  0  0  0  0  0
    1.5803   -0.7430   29.8419 N   0  0  0  0  0  0  0  0  0  0  0  0
    0.1135   -0.6451   29.9496 C   0  0  0  0  0  0  0  0  0  0  0  0
   -0.3076    0.7889   30.3018 C   0  0  0  0  0  0  0  0  0  0  0  0
   -0.2599    1.7029   29.0690 C   0  0  0  0  0  0  0  0  0  0  0  0
   -1.2171    1.1564   28.0144 C   0  0  0  0  0  0  0  0  0  0  0  0
   -1.2397    1.9722   26.8409 N   0  0  0  0  0  0  0  0  0  0  0  0
   -0.7133   -0.0961   27.5531 N   0  0  0  0  0  0  0  0  0  0  0  0
   -0.6185   -1.0839   28.6290 C   0  0  0  0  0  0  0  0  0  0  0  0
   -0.2322   -1.4989   31.0936 N   0  0  0  0  0  0  0  0  0  0  0  0
   -1.2515   -4.7368   28.3240 H   0  0  0  0  0  0  0  0  0  0  0  0
    0.4356   -4.0751   28.0252 H   0  0  0  0  0  0  0  0  0  0  0  0
   -0.9824   -4.3657   30.7331 H   0  0  0  0  0  0  0  0  0  0  0  0
    1.7074   -3.3299   29.6437 H   0  0  0  0  0  0  0  0  0  0  0  0
    2.5415   -5.2430   30.2605 H   0  0  0  0  0  0  0  0  0  0  0  0
    2.6567   -4.5210   31.8352 H   0  0  0  0  0  0  0  0  0  0  0  0
   -0.5859   -9.0043   30.4540 H   0  0  0  0  0  0  0  0  0  0  0  0
   -1.7954   -8.1210   34.0930 H   0  0  0  0  0  0  0  0  0  0  0  0
   -0.9962   -7.0598   36.1690 H   0  0  0  0  0  0  0  0  0  0  0  0
    0.9243   -5.4844   36.1482 H   0  0  0  0  0  0  0  0  0  0  0  0
    2.0651   -4.9854   33.9963 H   0  0  0  0  0  0  0  0  0  0  0  0
    0.1347   -3.3650   33.1200 H   0  0  0  0  0  0  0  0  0  0  0  0
    1.8806   -2.9716   33.2689 H   0  0  0  0  0  0  0  0  0  0  0  0
    0.2831   -0.8253   33.0192 H   0  0  0  0  0  0  0  0  0  0  0  0
    2.9220   -1.8399   30.9635 H   0  0  0  0  0  0  0  0  0  0  0  0
    1.9804    0.1891   29.7140 H   0  0  0  0  0  0  0  0  0  0  0  0
    0.3197    1.2108   31.0978 H   0  0  0  0  0  0  0  0  0  0  0  0
   -1.3306    0.7614   30.6963 H   0  0  0  0  0  0  0  0  0  0  0  0
   -0.5219    2.7315   29.3340 H   0  0  0  0  0  0  0  0  0  0  0  0
    0.7663    1.7598   28.6805 H   0  0  0  0  0  0  0  0  0  0  0  0
   -2.2217    1.0811   28.4280 H   0  0  0  0  0  0  0  0  0  0  0  0
   -1.9412    1.6075   26.2033 H   0  0  0  0  0  0  0  0  0  0  0  0
   -0.3379    1.8589   26.3898 H   0  0  0  0  0  0  0  0  0  0  0  0
   -1.2905   -0.4898   26.8054 H   0  0  0  0  0  0  0  0  0  0  0  0
   -1.6340   -1.4264   28.8643 H   0  0  0  0  0  0  0  0  0  0  0  0
   -0.0803   -1.9223   28.1959 H   0  0  0  0  0  0  0  0  0  0  0  0
   -1.0210   -2.0870   30.8509 H   0  0  0  0  0  0  0  0  0  0  0  0
  1  2  2  0
  2  3  1  0
  3  4  1  0
  4  5  1  0
  5  6  2  0
  6  7  1  0
  7  8  1  0
  7  9  2  0
  9 10  1  0
 10 11  2  0
 11 12  1  0
 12 13  2  0
 13 14  1  0
  3 15  1  0
 15 16  1  0
 16 17  1  0
 15 18  1  0
 18 19  1  0
 19 20  1  0
 20 21  1  0
 21 22  1  0
 22 23  1  0
 23 24  1  0
 23 25  1  0
 25 26  1  0
 20 27  1  0
 14  5  1  0
 27 15  1  0
 14  9  1  0
 26 20  1  0
  1 28  1  0
  1 29  1  0
  2 30  1  0
  3 31  1  0
  4 32  1  0
  4 33  1  0
  8 34  1  0
 10 35  1  0
 11 36  1  0
 12 37  1  0
 13 38  1  0
 16 39  1  0
 16 40  1  0
 17 41  1  0
 18 42  1  0
 19 43  1  0
 21 44  1  0
 21 45  1  0
 22 46  1  0
 22 47  1  0
 23 48  1  0
 24 49  1  0
 24 50  1  0
 25 51  1  0
 26 52  1  0
 26 53  1  0
 27 54  1  0
M  END
>  <Energy>  (94) 
51.883867890173448

>  <compound_id>  (94) 
231

>  <target_id>  (94) 
1

>  <reference_id>  (94) 
157

>  <inspiration_ids>  (94) 
[198, 157]

>  <energy_score>  (94) 
-90.30701444492394

>  <distance_score>  (94) 
1.443818048028228

>  <path>  (94) 
/opt/xchem-fragalysis-2/maxwin/BulkDock/SCRATCH/505737/C231-P157/C231-P157.minimised.mol

>  <scratch_subdir>  (94) 
/opt/xchem-fragalysis-2/maxwin/BulkDock/SCRATCH/505737/C231-P157

>  <fragmenstein_runtime>  (94) 
2.7333505153656006

>  <fragmenstein_outcome>  (94) 
too moved

>  <fragmenstein_mode>  (94) 
expansion

>  <fragmenstein_error>  (94) 


$$$$
C233-P198
     RDKit          3D

 53 56  0  0  0  0  0  0  0  0999 V2000
   -1.9528    1.4213   26.7013 N   0  0  0  0  0  0  0  0  0  0  0  0
   -1.6222    0.6405   27.8037 C   0  0  0  0  0  0  0  0  0  0  0  0
   -0.9875    1.1785   28.9098 C   0  0  0  0  0  0  0  0  0  0  0  0
   -0.7652    0.3618   30.0179 C   0  0  0  0  0  0  0  0  0  0  0  0
   -1.1688   -0.9686   29.9611 C   0  0  0  0  0  0  0  0  0  0  0  0
   -1.0416   -2.0137   31.3565 S   0  0  0  0  0  0  0  0  0  0  0  0
   -1.0820   -1.1889   32.5427 O   0  0  0  0  0  0  0  0  0  0  0  0
   -1.9385   -3.1416   31.2027 O   0  0  0  0  0  0  0  0  0  0  0  0
    0.5225   -2.5828   31.2585 N   0  0  0  0  0  0  0  0  0  0  0  0
    0.9618   -3.4593   30.1805 C   0  0  0  0  0  0  0  0  0  0  0  0
    1.4910   -4.7619   30.7711 C   0  0  0  0  0  0  0  0  0  0  0  0
    0.3903   -5.4803   31.5512 C   0  0  0  0  0  0  0  0  0  0  0  0
    0.4402   -5.3039   33.0244 N   0  0  0  0  0  0  0  0  0  0  0  0
   -0.5815   -6.2708   33.4400 C   0  0  0  0  0  0  0  0  0  0  0  0
   -0.7157   -6.7642   35.1749 S   0  0  0  0  0  0  0  0  0  0  0  0
    0.9544   -6.5063   35.8700 C   0  0  0  0  0  0  0  0  0  0  0  0
    0.9530   -6.8108   37.3628 C   0  0  0  0  0  0  0  0  0  0  0  0
    1.7288   -7.8316   37.9174 C   0  0  0  0  0  0  0  0  0  0  0  0
    1.6160   -8.1110   39.2739 C   0  0  0  0  0  0  0  0  0  0  0  0
    0.8260   -7.4213   40.1211 N   0  0  0  0  0  0  0  0  0  0  0  0
    0.1092   -6.4169   39.5831 C   0  0  0  0  0  0  0  0  0  0  0  0
    0.1429   -6.0767   38.2379 C   0  0  0  0  0  0  0  0  0  0  0  0
   -0.2726   -7.4513   32.5318 C   0  0  0  0  0  0  0  0  0  0  0  0
   -1.4611   -8.1240   31.9126 C   0  0  0  0  0  0  0  0  0  0  0  0
   -0.9984   -8.5042   30.5716 N   0  0  0  0  0  0  0  0  0  0  0  0
   -0.1676   -7.4043   30.1898 N   0  0  0  0  0  0  0  0  0  0  0  0
    0.4827   -6.9245   31.3806 N   0  0  0  0  0  0  0  0  0  0  0  0
   -1.7556   -1.4352   28.8075 C   0  0  0  0  0  0  0  0  0  0  0  0
   -1.9803   -0.6486   27.7349 N   0  0  0  0  0  0  0  0  0  0  0  0
   -2.5381    2.2050   26.9839 H   0  0  0  0  0  0  0  0  0  0  0  0
   -2.4776    0.7836   26.1002 H   0  0  0  0  0  0  0  0  0  0  0  0
   -0.6994    2.2248   28.9192 H   0  0  0  0  0  0  0  0  0  0  0  0
   -0.3028    0.7734   30.9104 H   0  0  0  0  0  0  0  0  0  0  0  0
    1.2130   -2.0995   31.8336 H   0  0  0  0  0  0  0  0  0  0  0  0
    1.7548   -2.9539   29.6193 H   0  0  0  0  0  0  0  0  0  0  0  0
    0.1522   -3.6733   29.4752 H   0  0  0  0  0  0  0  0  0  0  0  0
    2.3603   -4.5708   31.4133 H   0  0  0  0  0  0  0  0  0  0  0  0
    1.8536   -5.3779   29.9382 H   0  0  0  0  0  0  0  0  0  0  0  0
   -0.5910   -5.1431   31.1965 H   0  0  0  0  0  0  0  0  0  0  0  0
    0.1100   -4.3649   33.2491 H   0  0  0  0  0  0  0  0  0  0  0  0
   -1.5578   -5.8481   33.1874 H   0  0  0  0  0  0  0  0  0  0  0  0
    1.6596   -7.1613   35.3479 H   0  0  0  0  0  0  0  0  0  0  0  0
    1.2684   -5.4675   35.7256 H   0  0  0  0  0  0  0  0  0  0  0  0
    2.3997   -8.4232   37.3101 H   0  0  0  0  0  0  0  0  0  0  0  0
    2.1692   -8.9311   39.7235 H   0  0  0  0  0  0  0  0  0  0  0  0
   -0.5241   -5.8733   40.2788 H   0  0  0  0  0  0  0  0  0  0  0  0
   -0.4809   -5.2623   37.8811 H   0  0  0  0  0  0  0  0  0  0  0  0
    0.3820   -8.1417   33.0404 H   0  0  0  0  0  0  0  0  0  0  0  0
   -2.3024   -7.4494   31.7942 H   0  0  0  0  0  0  0  0  0  0  0  0
   -1.8037   -8.9769   32.4817 H   0  0  0  0  0  0  0  0  0  0  0  0
   -0.4016   -9.3413   30.6447 H   0  0  0  0  0  0  0  0  0  0  0  0
   -0.7031   -6.6836   29.6875 H   0  0  0  0  0  0  0  0  0  0  0  0
   -2.0965   -2.4581   28.6945 H   0  0  0  0  0  0  0  0  0  0  0  0
  1  2  1  0
  2  3  2  0
  3  4  1  0
  4  5  2  0
  5  6  1  0
  6  7  2  0
  6  8  2  0
  6  9  1  0
  9 10  1  0
 10 11  1  0
 11 12  1  0
 12 13  1  0
 13 14  1  0
 14 15  1  0
 15 16  1  0
 16 17  1  0
 17 18  2  0
 18 19  1  0
 19 20  2  0
 20 21  1  0
 21 22  2  0
 14 23  1  0
 23 24  1  0
 24 25  1  0
 25 26  1  0
 26 27  1  0
  5 28  1  0
 28 29  2  0
 29  2  1  0
 27 12  1  0
 22 17  1  0
 27 23  1  0
  1 30  1  0
  1 31  1  0
  3 32  1  0
  4 33  1  0
  9 34  1  0
 10 35  1  0
 10 36  1  0
 11 37  1  0
 11 38  1  0
 12 39  1  0
 13 40  1  0
 14 41  1  0
 16 42  1  0
 16 43  1  0
 18 44  1  0
 19 45  1  0
 21 46  1  0
 22 47  1  0
 23 48  1  0
 24 49  1  0
 24 50  1  0
 25 51  1  0
 26 52  1  0
 28 53  1  0
M  END
>  <Energy>  (95) 
-44.308818560809883

>  <compound_id>  (95) 
233

>  <target_id>  (95) 
1

>  <reference_id>  (95) 
198

>  <inspiration_ids>  (95) 
[198, 159]

>  <energy_score>  (95) 
-48.6750695133171

>  <distance_score>  (95) 
1.1037421632919813

>  <path>  (95) 
/opt/xchem-fragalysis-2/maxwin/BulkDock/SCRATCH/505737/C233-P198/C233-P198.minimised.mol

>  <scratch_subdir>  (95) 
/opt/xchem-fragalysis-2/maxwin/BulkDock/SCRATCH/505737/C233-P198

>  <fragmenstein_runtime>  (95) 
8.362023115158081

>  <fragmenstein_outcome>  (95) 
too moved

>  <fragmenstein_mode>  (95) 
expansion

>  <fragmenstein_error>  (95) 


$$$$
C233-P159
     RDKit          3D

 53 56  0  0  0  0  0  0  0  0999 V2000
   -1.7758    1.5380   26.7930 N   0  0  0  0  0  0  0  0  0  0  0  0
   -1.5028    0.7284   27.8893 C   0  0  0  0  0  0  0  0  0  0  0  0
   -0.8119    1.2072   28.9883 C   0  0  0  0  0  0  0  0  0  0  0  0
   -0.6273    0.3662   30.0854 C   0  0  0  0  0  0  0  0  0  0  0  0
   -1.1266   -0.9310   30.0268 C   0  0  0  0  0  0  0  0  0  0  0  0
   -1.0111   -2.0112   31.3959 S   0  0  0  0  0  0  0  0  0  0  0  0
   -0.8612   -1.2132   32.5918 O   0  0  0  0  0  0  0  0  0  0  0  0
   -2.0335   -3.0325   31.3014 O   0  0  0  0  0  0  0  0  0  0  0  0
    0.4625   -2.7506   31.1520 N   0  0  0  0  0  0  0  0  0  0  0  0
    0.6454   -3.7188   30.0786 C   0  0  0  0  0  0  0  0  0  0  0  0
    1.1476   -5.0331   30.6612 C   0  0  0  0  0  0  0  0  0  0  0  0
    0.2197   -5.5728   31.7619 C   0  0  0  0  0  0  0  0  0  0  0  0
    0.7466   -5.2949   33.1121 N   0  0  0  0  0  0  0  0  0  0  0  0
    0.0687   -6.2500   33.9971 C   0  0  0  0  0  0  0  0  0  0  0  0
    1.2178   -6.9723   35.2252 S   0  0  0  0  0  0  0  0  0  0  0  0
    0.9740   -5.9068   36.6689 C   0  0  0  0  0  0  0  0  0  0  0  0
    0.7850   -6.6714   37.9647 C   0  0  0  0  0  0  0  0  0  0  0  0
    1.4694   -7.8482   38.2981 C   0  0  0  0  0  0  0  0  0  0  0  0
    1.2199   -8.4529   39.5228 C   0  0  0  0  0  0  0  0  0  0  0  0
    0.3835   -7.9459   40.4503 N   0  0  0  0  0  0  0  0  0  0  0  0
   -0.2397   -6.7964   40.1350 C   0  0  0  0  0  0  0  0  0  0  0  0
   -0.0779   -6.1377   38.9265 C   0  0  0  0  0  0  0  0  0  0  0  0
   -0.2738   -7.3978   33.0603 C   0  0  0  0  0  0  0  0  0  0  0  0
   -1.7018   -7.7967   32.9374 C   0  0  0  0  0  0  0  0  0  0  0  0
   -1.7549   -8.3409   31.5766 N   0  0  0  0  0  0  0  0  0  0  0  0
   -0.8220   -7.5547   30.8218 N   0  0  0  0  0  0  0  0  0  0  0  0
    0.1553   -7.0242   31.7121 N   0  0  0  0  0  0  0  0  0  0  0  0
   -1.7736   -1.3393   28.8851 C   0  0  0  0  0  0  0  0  0  0  0  0
   -1.9526   -0.5300   27.8198 N   0  0  0  0  0  0  0  0  0  0  0  0
   -2.2846    2.3726   27.0763 H   0  0  0  0  0  0  0  0  0  0  0  0
   -2.3515    0.9609   26.1791 H   0  0  0  0  0  0  0  0  0  0  0  0
   -0.4423    2.2278   28.9986 H   0  0  0  0  0  0  0  0  0  0  0  0
   -0.1114    0.7335   30.9680 H   0  0  0  0  0  0  0  0  0  0  0  0
    1.2719   -2.3294   31.6076 H   0  0  0  0  0  0  0  0  0  0  0  0
    1.3717   -3.3223   29.3615 H   0  0  0  0  0  0  0  0  0  0  0  0
   -0.2851   -3.8990   29.5313 H   0  0  0  0  0  0  0  0  0  0  0  0
    2.1626   -4.8913   31.0522 H   0  0  0  0  0  0  0  0  0  0  0  0
    1.2396   -5.7486   29.8354 H   0  0  0  0  0  0  0  0  0  0  0  0
   -0.7881   -5.1516   31.6811 H   0  0  0  0  0  0  0  0  0  0  0  0
    0.4960   -4.3432   33.3740 H   0  0  0  0  0  0  0  0  0  0  0  0
   -0.8210   -5.8209   34.4678 H   0  0  0  0  0  0  0  0  0  0  0  0
    1.8500   -5.2577   36.7725 H   0  0  0  0  0  0  0  0  0  0  0  0
    0.1050   -5.2642   36.4927 H   0  0  0  0  0  0  0  0  0  0  0  0
    2.1794   -8.3094   37.6212 H   0  0  0  0  0  0  0  0  0  0  0  0
    1.6993   -9.3895   39.7958 H   0  0  0  0  0  0  0  0  0  0  0  0
   -0.9058   -6.4047   40.8991 H   0  0  0  0  0  0  0  0  0  0  0  0
   -0.6266   -5.2166   38.7539 H   0  0  0  0  0  0  0  0  0  0  0  0
    0.2486   -8.2838   33.3384 H   0  0  0  0  0  0  0  0  0  0  0  0
   -2.3192   -6.9272   33.0615 H   0  0  0  0  0  0  0  0  0  0  0  0
   -2.0124   -8.5338   33.6811 H   0  0  0  0  0  0  0  0  0  0  0  0
   -1.3798   -9.2987   31.6348 H   0  0  0  0  0  0  0  0  0  0  0  0
   -1.2621   -6.8611   30.2129 H   0  0  0  0  0  0  0  0  0  0  0  0
   -2.1960   -2.3312   28.7744 H   0  0  0  0  0  0  0  0  0  0  0  0
  1  2  1  0
  2  3  2  0
  3  4  1  0
  4  5  2  0
  5  6  1  0
  6  7  2  0
  6  8  2  0
  6  9  1  0
  9 10  1  0
 10 11  1  0
 11 12  1  0
 12 13  1  0
 13 14  1  0
 14 15  1  0
 15 16  1  0
 16 17  1  0
 17 18  2  0
 18 19  1  0
 19 20  2  0
 20 21  1  0
 21 22  2  0
 14 23  1  0
 23 24  1  0
 24 25  1  0
 25 26  1  0
 26 27  1  0
  5 28  1  0
 28 29  2  0
 29  2  1  0
 27 12  1  0
 22 17  1  0
 27 23  1  0
  1 30  1  0
  1 31  1  0
  3 32  1  0
  4 33  1  0
  9 34  1  0
 10 35  1  0
 10 36  1  0
 11 37  1  0
 11 38  1  0
 12 39  1  0
 13 40  1  0
 14 41  1  0
 16 42  1  0
 16 43  1  0
 18 44  1  0
 19 45  1  0
 21 46  1  0
 22 47  1  0
 23 48  1  0
 24 49  1  0
 24 50  1  0
 25 51  1  0
 26 52  1  0
 28 53  1  0
M  END
>  <Energy>  (96) 
-37.087079684327442

>  <compound_id>  (96) 
233

>  <target_id>  (96) 
1

>  <reference_id>  (96) 
159

>  <inspiration_ids>  (96) 
[198, 159]

>  <energy_score>  (96) 
-41.453330636835176

>  <distance_score>  (96) 
0.9494473113598784

>  <path>  (96) 
/opt/xchem-fragalysis-2/maxwin/BulkDock/SCRATCH/505737/C233-P159/C233-P159.minimised.mol

>  <scratch_subdir>  (96) 
/opt/xchem-fragalysis-2/maxwin/BulkDock/SCRATCH/505737/C233-P159

>  <fragmenstein_runtime>  (96) 
7.87251615524292

>  <fragmenstein_outcome>  (96) 
acceptable

>  <fragmenstein_mode>  (96) 
expansion

>  <fragmenstein_error>  (96) 


$$$$
C233-P198
     RDKit          2D

  0  0  0  0  0  0  0  0  0  0999 V2000
M  END
>  <compound_id>  (97) 
233

>  <target_id>  (97) 
1

>  <reference_id>  (97) 
198

>  <inspiration_ids>  (97) 
[198, 162]

>  <energy_score>  (97) 
nan

>  <distance_score>  (97) 
nan

>  <path>  (97) 
/opt/xchem-fragalysis-2/maxwin/BulkDock/SCRATCH/505737/C233-P198/C233-P198.minimised.mol

>  <scratch_subdir>  (97) 
/opt/xchem-fragalysis-2/maxwin/BulkDock/SCRATCH/505737/C233-P198

>  <fragmenstein_runtime>  (97) 
0.8179728984832764

>  <fragmenstein_outcome>  (97) 
too distant

>  <fragmenstein_mode>  (97) 
expansion

>  <fragmenstein_error>  (97) 
DistanceError: hit0+hit1

$$$$
C234-P198
     RDKit          3D

 48 52  0  0  0  0  0  0  0  0999 V2000
   -1.8191    1.4265   26.7759 N   0  0  0  0  0  0  0  0  0  0  0  0
   -1.5315    0.6363   27.8835 C   0  0  0  0  0  0  0  0  0  0  0  0
   -0.9012    1.1592   28.9990 C   0  0  0  0  0  0  0  0  0  0  0  0
   -0.7253    0.3392   30.1122 C   0  0  0  0  0  0  0  0  0  0  0  0
   -1.1656   -0.9814   30.0512 C   0  0  0  0  0  0  0  0  0  0  0  0
   -1.1051   -2.0152   31.4659 S   0  0  0  0  0  0  0  0  0  0  0  0
   -1.2597   -1.1598   32.6228 O   0  0  0  0  0  0  0  0  0  0  0  0
   -1.9649   -3.1627   31.2595 O   0  0  0  0  0  0  0  0  0  0  0  0
    0.4842   -2.5197   31.4656 N   0  0  0  0  0  0  0  0  0  0  0  0
    0.9898   -3.4244   30.4297 C   0  0  0  0  0  0  0  0  0  0  0  0
    2.1361   -4.2744   30.9814 C   0  0  0  0  0  0  0  0  0  0  0  0
    1.7054   -5.0864   32.1729 C   0  0  0  0  0  0  0  0  0  0  0  0
    0.6234   -5.8629   32.0010 N   0  0  0  0  0  0  0  0  0  0  0  0
    0.1223   -6.5525   33.0410 C   0  0  0  0  0  0  0  0  0  0  0  0
   -1.3101   -7.5403   32.9021 S   0  0  0  0  0  0  0  0  0  0  0  0
   -1.7057   -7.5742   31.2184 C   0  0  0  0  0  0  0  0  0  0  0  0
   -0.8853   -7.2252   30.2882 N   0  0  0  0  0  0  0  0  0  0  0  0
   -1.2820   -7.7379   29.0825 C   0  0  0  0  0  0  0  0  0  0  0  0
   -0.5900   -8.6456   28.6236 O   0  0  0  0  0  0  0  0  0  0  0  0
   -2.6568   -7.2323   28.5993 C   0  0  0  0  0  0  0  0  0  0  0  0
   -4.6053   -7.7910   27.7161 S   0  0  0  0  0  0  0  0  0  0  0  0
   -6.0092   -6.5432   29.0329 C   0  0  0  0  0  0  0  0  0  0  0  0
   -5.3305   -7.9505   28.9754 C   0  0  0  0  0  0  0  0  0  0  0  0
   -3.5451   -7.5736   29.6075 C   0  0  0  0  0  0  0  0  0  0  0  0
   -2.9595   -8.0458   30.9097 N   0  0  0  0  0  0  0  0  0  0  0  0
    0.7566   -6.4699   34.2701 C   0  0  0  0  0  0  0  0  0  0  0  0
    0.6232   -6.9761   35.5783 C   0  0  0  0  0  0  0  0  0  0  0  0
    1.5940   -6.5483   36.3920 N   0  0  0  0  0  0  0  0  0  0  0  0
    2.3229   -5.7271   35.6082 N   0  0  0  0  0  0  0  0  0  0  0  0
    1.8780   -5.6668   34.3196 C   0  0  0  0  0  0  0  0  0  0  0  0
    2.4147   -4.9604   33.3120 N   0  0  0  0  0  0  0  0  0  0  0  0
   -1.7357   -1.4380   28.8860 C   0  0  0  0  0  0  0  0  0  0  0  0
   -1.9220   -0.6442   27.8095 N   0  0  0  0  0  0  0  0  0  0  0  0
   -2.3867    2.2276   27.0435 H   0  0  0  0  0  0  0  0  0  0  0  0
   -2.3421    0.8042   26.1576 H   0  0  0  0  0  0  0  0  0  0  0  0
   -0.5860    2.1976   29.0126 H   0  0  0  0  0  0  0  0  0  0  0  0
   -0.2750    0.7408   31.0153 H   0  0  0  0  0  0  0  0  0  0  0  0
    1.1257   -1.9598   32.0249 H   0  0  0  0  0  0  0  0  0  0  0  0
    0.1890   -4.0677   30.0491 H   0  0  0  0  0  0  0  0  0  0  0  0
    1.3620   -2.8253   29.5915 H   0  0  0  0  0  0  0  0  0  0  0  0
    2.4991   -4.9556   30.2036 H   0  0  0  0  0  0  0  0  0  0  0  0
    2.9742   -3.6266   31.2656 H   0  0  0  0  0  0  0  0  0  0  0  0
   -6.2151   -5.7088   28.3426 H   0  0  0  0  0  0  0  0  0  0  0  0
   -6.0547   -8.7641   29.2014 H   0  0  0  0  0  0  0  0  0  0  0  0
   -3.5823   -8.3933   31.6412 H   0  0  0  0  0  0  0  0  0  0  0  0
   -0.1295   -7.6479   35.9732 H   0  0  0  0  0  0  0  0  0  0  0  0
    3.1176   -5.2414   36.0072 H   0  0  0  0  0  0  0  0  0  0  0  0
   -2.0946   -2.4547   28.7660 H   0  0  0  0  0  0  0  0  0  0  0  0
  1  2  1  0
  2  3  2  0
  3  4  1  0
  4  5  2  0
  5  6  1  0
  6  7  2  0
  6  8  2  0
  6  9  1  0
  9 10  1  0
 10 11  1  0
 11 12  1  0
 12 13  2  0
 13 14  1  0
 14 15  1  0
 15 16  1  0
 16 17  2  0
 17 18  1  0
 18 19  2  0
 18 20  1  0
 20 21  1  0
 21 22  1  0
 22 23  2  0
 23 24  1  0
 24 25  1  0
 14 26  2  0
 26 27  1  0
 27 28  2  0
 28 29  1  0
 29 30  1  0
 30 31  2  0
  5 32  1  0
 32 33  2  0
 33  2  1  0
 31 12  1  0
 25 16  1  0
 30 26  1  0
 24 20  2  0
  1 34  1  0
  1 35  1  0
  3 36  1  0
  4 37  1  0
  9 38  1  0
 10 39  1  0
 10 40  1  0
 11 41  1  0
 11 42  1  0
 22 43  1  0
 23 44  1  0
 25 45  1  0
 27 46  1  0
 29 47  1  0
 32 48  1  0
M  END
>  <Energy>  (98) 
243.80875388086653

>  <compound_id>  (98) 
234

>  <target_id>  (98) 
1

>  <reference_id>  (98) 
198

>  <inspiration_ids>  (98) 
[198, 163]

>  <energy_score>  (98) 
287.6265696977252

>  <distance_score>  (98) 
1.4647001337775931

>  <path>  (98) 
/opt/xchem-fragalysis-2/maxwin/BulkDock/SCRATCH/505737/C234-P198/C234-P198.minimised.mol

>  <scratch_subdir>  (98) 
/opt/xchem-fragalysis-2/maxwin/BulkDock/SCRATCH/505737/C234-P198

>  <fragmenstein_runtime>  (98) 
8.403487920761108

>  <fragmenstein_outcome>  (98) 
too moved

>  <fragmenstein_mode>  (98) 
expansion

>  <fragmenstein_error>  (98) 


$$$$
C234-P163
     RDKit          3D

 48 52  0  0  0  0  0  0  0  0999 V2000
   -1.3567    1.5308   27.0508 N   0  0  0  0  0  0  0  0  0  0  0  0
   -1.1566    0.6608   28.1170 C   0  0  0  0  0  0  0  0  0  0  0  0
   -0.5486    1.0811   29.2881 C   0  0  0  0  0  0  0  0  0  0  0  0
   -0.4607    0.1888   30.3554 C   0  0  0  0  0  0  0  0  0  0  0  0
   -0.9500   -1.1048   30.1903 C   0  0  0  0  0  0  0  0  0  0  0  0
   -1.0193   -2.2289   31.5334 S   0  0  0  0  0  0  0  0  0  0  0  0
   -0.9980   -1.4450   32.7501 O   0  0  0  0  0  0  0  0  0  0  0  0
   -2.0591   -3.2095   31.3017 O   0  0  0  0  0  0  0  0  0  0  0  0
    0.4718   -2.9851   31.4525 N   0  0  0  0  0  0  0  0  0  0  0  0
    0.6733   -4.1009   30.5154 C   0  0  0  0  0  0  0  0  0  0  0  0
    1.7133   -5.0827   31.0533 C   0  0  0  0  0  0  0  0  0  0  0  0
    1.2143   -5.7404   32.3137 C   0  0  0  0  0  0  0  0  0  0  0  0
    0.2854   -6.7002   32.1600 N   0  0  0  0  0  0  0  0  0  0  0  0
   -0.4382   -7.1170   33.2262 C   0  0  0  0  0  0  0  0  0  0  0  0
   -1.8414   -8.1843   33.0836 S   0  0  0  0  0  0  0  0  0  0  0  0
   -2.5301   -7.9278   31.5086 C   0  0  0  0  0  0  0  0  0  0  0  0
   -1.8298   -7.1008   30.8371 N   0  0  0  0  0  0  0  0  0  0  0  0
   -2.1106   -7.2541   29.5477 C   0  0  0  0  0  0  0  0  0  0  0  0
   -1.2654   -7.8808   28.9295 O   0  0  0  0  0  0  0  0  0  0  0  0
   -3.6998   -7.1989   29.2343 C   0  0  0  0  0  0  0  0  0  0  0  0
   -5.6943   -5.6000   29.5479 S   0  0  0  0  0  0  0  0  0  0  0  0
   -6.2342   -6.0776   28.2795 C   0  0  0  0  0  0  0  0  0  0  0  0
   -5.7541   -7.7627   28.9120 C   0  0  0  0  0  0  0  0  0  0  0  0
   -4.5089   -8.0609   29.4413 C   0  0  0  0  0  0  0  0  0  0  0  0
   -3.7547   -8.5527   30.9903 N   0  0  0  0  0  0  0  0  0  0  0  0
   -0.0484   -6.6857   34.4851 C   0  0  0  0  0  0  0  0  0  0  0  0
   -0.3808   -6.9019   35.8330 C   0  0  0  0  0  0  0  0  0  0  0  0
    0.3527   -6.1659   36.6730 N   0  0  0  0  0  0  0  0  0  0  0  0
    1.1525   -5.4588   35.8490 N   0  0  0  0  0  0  0  0  0  0  0  0
    0.9716   -5.7549   34.5282 C   0  0  0  0  0  0  0  0  0  0  0  0
    1.6292   -5.2221   33.4857 N   0  0  0  0  0  0  0  0  0  0  0  0
   -1.4840   -1.4609   28.9719 C   0  0  0  0  0  0  0  0  0  0  0  0
   -1.5997   -0.5916   27.9440 N   0  0  0  0  0  0  0  0  0  0  0  0
   -1.8957    2.3430   27.3407 H   0  0  0  0  0  0  0  0  0  0  0  0
   -1.8815    0.9781   26.3721 H   0  0  0  0  0  0  0  0  0  0  0  0
   -0.1765    2.0962   29.3773 H   0  0  0  0  0  0  0  0  0  0  0  0
   -0.0297    0.5103   31.2992 H   0  0  0  0  0  0  0  0  0  0  0  0
    0.9476   -3.0035   32.3577 H   0  0  0  0  0  0  0  0  0  0  0  0
   -0.2655   -4.6263   30.3171 H   0  0  0  0  0  0  0  0  0  0  0  0
    1.0243   -3.6865   29.5640 H   0  0  0  0  0  0  0  0  0  0  0  0
    1.9079   -5.8495   30.2971 H   0  0  0  0  0  0  0  0  0  0  0  0
    2.6617   -4.5709   31.2541 H   0  0  0  0  0  0  0  0  0  0  0  0
   -7.1105   -5.6860   27.7450 H   0  0  0  0  0  0  0  0  0  0  0  0
   -6.3508   -8.6959   28.7363 H   0  0  0  0  0  0  0  0  0  0  0  0
   -4.3707   -8.9558   31.6923 H   0  0  0  0  0  0  0  0  0  0  0  0
   -1.1150   -7.5817   36.2371 H   0  0  0  0  0  0  0  0  0  0  0  0
    1.8047   -4.7938   36.2473 H   0  0  0  0  0  0  0  0  0  0  0  0
   -1.8769   -2.4530   28.7690 H   0  0  0  0  0  0  0  0  0  0  0  0
  1  2  1  0
  2  3  2  0
  3  4  1  0
  4  5  2  0
  5  6  1  0
  6  7  2  0
  6  8  2  0
  6  9  1  0
  9 10  1  0
 10 11  1  0
 11 12  1  0
 12 13  2  0
 13 14  1  0
 14 15  1  0
 15 16  1  0
 16 17  2  0
 17 18  1  0
 18 19  2  0
 18 20  1  0
 20 21  1  0
 21 22  1  0
 22 23  2  0
 23 24  1  0
 24 25  1  0
 14 26  2  0
 26 27  1  0
 27 28  2  0
 28 29  1  0
 29 30  1  0
 30 31  2  0
  5 32  1  0
 32 33  2  0
 33  2  1  0
 31 12  1  0
 25 16  1  0
 30 26  1  0
 24 20  2  0
  1 34  1  0
  1 35  1  0
  3 36  1  0
  4 37  1  0
  9 38  1  0
 10 39  1  0
 10 40  1  0
 11 41  1  0
 11 42  1  0
 22 43  1  0
 23 44  1  0
 25 45  1  0
 27 46  1  0
 29 47  1  0
 32 48  1  0
M  END
>  <Energy>  (99) 
388.48720703311119

>  <compound_id>  (99) 
234

>  <target_id>  (99) 
1

>  <reference_id>  (99) 
163

>  <inspiration_ids>  (99) 
[198, 163]

>  <energy_score>  (99) 
432.30502284996504

>  <distance_score>  (99) 
1.1457393665254023

>  <path>  (99) 
/opt/xchem-fragalysis-2/maxwin/BulkDock/SCRATCH/505737/C234-P163/C234-P163.minimised.mol

>  <scratch_subdir>  (99) 
/opt/xchem-fragalysis-2/maxwin/BulkDock/SCRATCH/505737/C234-P163

>  <fragmenstein_runtime>  (99) 
10.362857103347778

>  <fragmenstein_outcome>  (99) 
too moved

>  <fragmenstein_mode>  (99) 
expansion

>  <fragmenstein_error>  (99) 


$$$$
C235-P198
     RDKit          3D

 61 65  0  0  0  0  0  0  0  0999 V2000
   -1.9722    1.8736   26.5513 N   0  0  0  0  0  0  0  0  0  0  0  0
   -1.6221    1.0363   27.6070 C   0  0  0  0  0  0  0  0  0  0  0  0
   -0.8924    1.5063   28.6852 C   0  0  0  0  0  0  0  0  0  0  0  0
   -0.6646    0.6505   29.7611 C   0  0  0  0  0  0  0  0  0  0  0  0
   -1.1582   -0.6512   29.7038 C   0  0  0  0  0  0  0  0  0  0  0  0
   -1.0708   -1.7048   31.1034 S   0  0  0  0  0  0  0  0  0  0  0  0
   -0.8814   -0.8581   32.2610 O   0  0  0  0  0  0  0  0  0  0  0  0
   -2.1414   -2.6767   31.0502 O   0  0  0  0  0  0  0  0  0  0  0  0
    0.3978   -2.4944   30.8567 N   0  0  0  0  0  0  0  0  0  0  0  0
    0.4181   -3.6046   29.8871 C   0  0  0  0  0  0  0  0  0  0  0  0
    1.5352   -4.5766   30.2554 C   0  0  0  0  0  0  0  0  0  0  0  0
    1.3962   -5.2638   31.6206 C   0  0  0  0  0  0  0  0  0  0  0  0
    1.4518   -4.3516   32.7852 N   0  0  0  0  0  0  0  0  0  0  0  0
    0.3521   -4.8000   33.6965 C   0  0  0  0  0  0  0  0  0  0  0  0
    0.6438   -4.2490   35.3935 S   0  0  0  0  0  0  0  0  0  0  0  0
    1.4093   -5.8292   36.2863 C   0  0  0  0  0  0  0  0  0  0  0  0
    1.7797   -5.9457   38.2577 N   0  0  0  0  0  0  0  0  0  0  0  0
    2.3336   -4.9389   39.0156 C   0  0  0  0  0  0  0  0  0  0  0  0
    2.4898   -4.6272   40.1498 O   0  0  0  0  0  0  0  0  0  0  0  0
    1.8913   -4.4916   37.7883 C   0  0  0  0  0  0  0  0  0  0  0  0
   -0.2958   -5.4827   38.0077 S   0  0  0  0  0  0  0  0  0  0  0  0
    0.5886   -7.6050   37.6963 C   0  0  0  0  0  0  0  0  0  0  0  0
    2.4549   -7.5978   37.3146 C   0  0  0  0  0  0  0  0  0  0  0  0
    3.1259   -5.8169   36.9442 C   0  0  0  0  0  0  0  0  0  0  0  0
    2.6963   -5.8306   35.6301 N   0  0  0  0  0  0  0  0  0  0  0  0
    0.1980   -6.2490   33.2825 C   0  0  0  0  0  0  0  0  0  0  0  0
   -1.0859   -7.0066   33.4457 C   0  0  0  0  0  0  0  0  0  0  0  0
   -1.2085   -7.7882   32.1285 C   0  0  0  0  0  0  0  0  0  0  0  0
   -0.2033   -7.1741   31.1531 C   0  0  0  0  0  0  0  0  0  0  0  0
    0.1721   -5.9785   31.8410 N   0  0  0  0  0  0  0  0  0  0  0  0
   -1.8117   -1.0622   28.5651 C   0  0  0  0  0  0  0  0  0  0  0  0
   -2.0423   -0.2339   27.5200 N   0  0  0  0  0  0  0  0  0  0  0  0
   -2.6009    1.3142   25.9761 H   0  0  0  0  0  0  0  0  0  0  0  0
   -2.4621    2.6957   26.9007 H   0  0  0  0  0  0  0  0  0  0  0  0
   -0.5513    2.5363   28.7106 H   0  0  0  0  0  0  0  0  0  0  0  0
   -0.1450    1.0195   30.6413 H   0  0  0  0  0  0  0  0  0  0  0  0
    1.1719   -1.8324   30.7688 H   0  0  0  0  0  0  0  0  0  0  0  0
    0.6051   -3.1966   28.8881 H   0  0  0  0  0  0  0  0  0  0  0  0
   -0.5346   -4.1395   29.8616 H   0  0  0  0  0  0  0  0  0  0  0  0
    1.5890   -5.3488   29.4775 H   0  0  0  0  0  0  0  0  0  0  0  0
    2.4961   -4.0455   30.2265 H   0  0  0  0  0  0  0  0  0  0  0  0
    2.2488   -5.9422   31.7250 H   0  0  0  0  0  0  0  0  0  0  0  0
    1.1588   -3.4255   32.4599 H   0  0  0  0  0  0  0  0  0  0  0  0
   -0.5547   -4.2480   33.4057 H   0  0  0  0  0  0  0  0  0  0  0  0
    0.8148   -6.6526   35.8853 H   0  0  0  0  0  0  0  0  0  0  0  0
    0.9913   -6.1908   38.8711 H   0  0  0  0  0  0  0  0  0  0  0  0
    1.9684   -3.4273   37.5495 H   0  0  0  0  0  0  0  0  0  0  0  0
    0.4279   -8.1157   38.6536 H   0  0  0  0  0  0  0  0  0  0  0  0
    0.0080   -8.0608   36.8888 H   0  0  0  0  0  0  0  0  0  0  0  0
    2.9779   -7.9803   38.2032 H   0  0  0  0  0  0  0  0  0  0  0  0
    2.6428   -8.2388   36.4471 H   0  0  0  0  0  0  0  0  0  0  0  0
    4.1812   -5.7042   37.2179 H   0  0  0  0  0  0  0  0  0  0  0  0
    2.8002   -4.9122   35.1912 H   0  0  0  0  0  0  0  0  0  0  0  0
    1.0546   -6.8812   33.5550 H   0  0  0  0  0  0  0  0  0  0  0  0
   -1.0781   -7.6665   34.3175 H   0  0  0  0  0  0  0  0  0  0  0  0
   -1.9158   -6.3159   33.5586 H   0  0  0  0  0  0  0  0  0  0  0  0
   -2.2270   -7.7343   31.7402 H   0  0  0  0  0  0  0  0  0  0  0  0
   -0.9818   -8.8417   32.2759 H   0  0  0  0  0  0  0  0  0  0  0  0
    0.6302   -7.8476   30.9825 H   0  0  0  0  0  0  0  0  0  0  0  0
   -0.6672   -6.9652   30.1858 H   0  0  0  0  0  0  0  0  0  0  0  0
   -2.2160   -2.0631   28.4469 H   0  0  0  0  0  0  0  0  0  0  0  0
  1  2  1  0
  2  3  2  0
  3  4  1  0
  4  5  2  0
  5  6  1  0
  6  7  2  0
  6  8  2  0
  6  9  1  0
  9 10  1  0
 10 11  1  0
 11 12  1  0
 12 13  1  0
 13 14  1  0
 14 15  1  0
 15 16  1  0
 16 17  1  0
 17 18  1  0
 18 19  2  0
 18 20  1  0
 20 21  1  0
 21 22  1  0
 22 23  1  0
 23 24  1  0
 24 25  1  0
 14 26  1  0
 26 27  1  0
 27 28  1  0
 28 29  1  0
 29 30  1  0
  5 31  1  0
 31 32  2  0
 32  2  1  0
 30 12  1  0
 25 16  1  0
 30 26  1  0
 24 20  1  0
  1 33  1  0
  1 34  1  0
  3 35  1  0
  4 36  1  0
  9 37  1  0
 10 38  1  0
 10 39  1  0
 11 40  1  0
 11 41  1  0
 12 42  1  0
 13 43  1  0
 14 44  1  0
 16 45  1  0
 17 46  1  0
 20 47  1  0
 22 48  1  0
 22 49  1  0
 23 50  1  0
 23 51  1  0
 24 52  1  0
 25 53  1  0
 26 54  1  0
 27 55  1  0
 27 56  1  0
 28 57  1  0
 28 58  1  0
 29 59  1  0
 29 60  1  0
 31 61  1  0
M  END
>  <Energy>  (100) 
496.05536727536833

>  <compound_id>  (100) 
235

>  <target_id>  (100) 
1

>  <reference_id>  (100) 
198

>  <inspiration_ids>  (100) 
[198, 164]

>  <energy_score>  (100) 
568.5894531502842

>  <distance_score>  (100) 
2.086770124065203

>  <path>  (100) 
/opt/xchem-fragalysis-2/maxwin/BulkDock/SCRATCH/505737/C235-P198/C235-P198.minimised.mol

>  <scratch_subdir>  (100) 
/opt/xchem-fragalysis-2/maxwin/BulkDock/SCRATCH/505737/C235-P198

>  <fragmenstein_runtime>  (100) 
13.107573747634888

>  <fragmenstein_outcome>  (100) 
too moved

>  <fragmenstein_mode>  (100) 
expansion

>  <fragmenstein_error>  (100) 


$$$$
C235-P164
     RDKit          3D

 61 65  0  0  0  0  0  0  0  0999 V2000
   -1.7719    1.6690   26.8377 N   0  0  0  0  0  0  0  0  0  0  0  0
   -1.3309    0.8173   27.8325 C   0  0  0  0  0  0  0  0  0  0  0  0
   -0.7217    1.3010   28.9760 C   0  0  0  0  0  0  0  0  0  0  0  0
   -0.4696    0.4214   30.0267 C   0  0  0  0  0  0  0  0  0  0  0  0
   -0.8213   -0.9155   29.8778 C   0  0  0  0  0  0  0  0  0  0  0  0
   -0.6707   -2.0469   31.1967 S   0  0  0  0  0  0  0  0  0  0  0  0
   -0.4887   -1.2982   32.4212 O   0  0  0  0  0  0  0  0  0  0  0  0
   -1.7183   -3.0419   31.0992 O   0  0  0  0  0  0  0  0  0  0  0  0
    0.8065   -2.7688   30.8930 N   0  0  0  0  0  0  0  0  0  0  0  0
    0.9714   -3.8552   29.9270 C   0  0  0  0  0  0  0  0  0  0  0  0
    1.3769   -5.1591   30.6364 C   0  0  0  0  0  0  0  0  0  0  0  0
    0.4435   -5.4268   31.8116 C   0  0  0  0  0  0  0  0  0  0  0  0
    0.9716   -4.9549   33.1063 N   0  0  0  0  0  0  0  0  0  0  0  0
    0.2252   -5.7100   34.1630 C   0  0  0  0  0  0  0  0  0  0  0  0
    1.3310   -6.7912   35.1278 S   0  0  0  0  0  0  0  0  0  0  0  0
    1.1371   -6.1706   36.7996 C   0  0  0  0  0  0  0  0  0  0  0  0
   -0.1945   -6.0793   37.2835 N   0  0  0  0  0  0  0  0  0  0  0  0
   -0.3504   -5.4726   38.5075 C   0  0  0  0  0  0  0  0  0  0  0  0
   -1.2567   -4.6577   38.6551 O   0  0  0  0  0  0  0  0  0  0  0  0
    0.6142   -5.8823   39.5992 C   0  0  0  0  0  0  0  0  0  0  0  0
   -0.2313   -7.0064   40.7607 S   0  0  0  0  0  0  0  0  0  0  0  0
    0.7888   -8.4360   40.3581 C   0  0  0  0  0  0  0  0  0  0  0  0
    2.1178   -7.8111   39.9861 C   0  0  0  0  0  0  0  0  0  0  0  0
    1.8406   -6.6356   39.0464 C   0  0  0  0  0  0  0  0  0  0  0  0
    1.7478   -7.1365   37.6726 N   0  0  0  0  0  0  0  0  0  0  0  0
   -0.7539   -6.4966   33.3239 C   0  0  0  0  0  0  0  0  0  0  0  0
   -1.3209   -7.8428   33.6103 C   0  0  0  0  0  0  0  0  0  0  0  0
   -1.6167   -8.3249   32.1903 C   0  0  0  0  0  0  0  0  0  0  0  0
   -0.6957   -7.5516   31.2527 C   0  0  0  0  0  0  0  0  0  0  0  0
    0.1017   -6.7723   32.1512 N   0  0  0  0  0  0  0  0  0  0  0  0
   -1.3846   -1.3256   28.6930 C   0  0  0  0  0  0  0  0  0  0  0  0
   -1.6437   -0.4750   27.6795 N   0  0  0  0  0  0  0  0  0  0  0  0
   -1.0865    2.3358   26.5155 H   0  0  0  0  0  0  0  0  0  0  0  0
   -2.2007    1.1003   26.1139 H   0  0  0  0  0  0  0  0  0  0  0  0
   -0.4997    2.3590   29.0691 H   0  0  0  0  0  0  0  0  0  0  0  0
   -0.0321    0.7914   30.9494 H   0  0  0  0  0  0  0  0  0  0  0  0
    1.5934   -2.4793   31.4742 H   0  0  0  0  0  0  0  0  0  0  0  0
    1.7452   -3.5724   29.2058 H   0  0  0  0  0  0  0  0  0  0  0  0
    0.0500   -4.0164   29.3581 H   0  0  0  0  0  0  0  0  0  0  0  0
    1.3344   -5.9747   29.9058 H   0  0  0  0  0  0  0  0  0  0  0  0
    2.4190   -5.0983   30.9743 H   0  0  0  0  0  0  0  0  0  0  0  0
   -0.4917   -4.9089   31.5938 H   0  0  0  0  0  0  0  0  0  0  0  0
    0.7367   -3.9680   33.1939 H   0  0  0  0  0  0  0  0  0  0  0  0
   -0.2939   -4.9944   34.8057 H   0  0  0  0  0  0  0  0  0  0  0  0
    1.6322   -5.1941   36.8649 H   0  0  0  0  0  0  0  0  0  0  0  0
   -0.8812   -5.7057   36.6471 H   0  0  0  0  0  0  0  0  0  0  0  0
    0.9330   -4.9810   40.1335 H   0  0  0  0  0  0  0  0  0  0  0  0
    0.3389   -8.9641   39.5174 H   0  0  0  0  0  0  0  0  0  0  0  0
    0.8748   -9.1163   41.2089 H   0  0  0  0  0  0  0  0  0  0  0  0
    2.6290   -7.4470   40.8883 H   0  0  0  0  0  0  0  0  0  0  0  0
    2.7880   -8.5544   39.5375 H   0  0  0  0  0  0  0  0  0  0  0  0
    2.7061   -5.9607   39.0737 H   0  0  0  0  0  0  0  0  0  0  0  0
    1.1590   -7.9686   37.6318 H   0  0  0  0  0  0  0  0  0  0  0  0
   -1.5920   -5.8366   33.0652 H   0  0  0  0  0  0  0  0  0  0  0  0
   -2.2056   -7.8155   34.2488 H   0  0  0  0  0  0  0  0  0  0  0  0
   -0.5966   -8.4713   34.1077 H   0  0  0  0  0  0  0  0  0  0  0  0
   -2.6560   -8.1178   31.9332 H   0  0  0  0  0  0  0  0  0  0  0  0
   -1.4715   -9.3902   32.0604 H   0  0  0  0  0  0  0  0  0  0  0  0
   -1.2789   -6.9525   30.5601 H   0  0  0  0  0  0  0  0  0  0  0  0
   -0.0791   -8.2198   30.6468 H   0  0  0  0  0  0  0  0  0  0  0  0
   -1.6880   -2.3502   28.5113 H   0  0  0  0  0  0  0  0  0  0  0  0
  1  2  1  0
  2  3  2  0
  3  4  1  0
  4  5  2  0
  5  6  1  0
  6  7  2  0
  6  8  2  0
  6  9  1  0
  9 10  1  0
 10 11  1  0
 11 12  1  0
 12 13  1  0
 13 14  1  0
 14 15  1  0
 15 16  1  0
 16 17  1  0
 17 18  1  0
 18 19  2  0
 18 20  1  0
 20 21  1  0
 21 22  1  0
 22 23  1  0
 23 24  1  0
 24 25  1  0
 14 26  1  0
 26 27  1  0
 27 28  1  0
 28 29  1  0
 29 30  1  0
  5 31  1  0
 31 32  2  0
 32  2  1  0
 30 12  1  0
 25 16  1  0
 30 26  1  0
 24 20  1  0
  1 33  1  0
  1 34  1  0
  3 35  1  0
  4 36  1  0
  9 37  1  0
 10 38  1  0
 10 39  1  0
 11 40  1  0
 11 41  1  0
 12 42  1  0
 13 43  1  0
 14 44  1  0
 16 45  1  0
 17 46  1  0
 20 47  1  0
 22 48  1  0
 22 49  1  0
 23 50  1  0
 23 51  1  0
 24 52  1  0
 25 53  1  0
 26 54  1  0
 27 55  1  0
 27 56  1  0
 28 57  1  0
 28 58  1  0
 29 59  1  0
 29 60  1  0
 31 61  1  0
M  END
>  <Energy>  (101) 
-161.56577919654879

>  <compound_id>  (101) 
235

>  <target_id>  (101) 
1

>  <reference_id>  (101) 
164

>  <inspiration_ids>  (101) 
[198, 164]

>  <energy_score>  (101) 
-108.14361808413433

>  <distance_score>  (101) 
1.8913861732374722

>  <path>  (101) 
/opt/xchem-fragalysis-2/maxwin/BulkDock/SCRATCH/505737/C235-P164/C235-P164.minimised.mol

>  <scratch_subdir>  (101) 
/opt/xchem-fragalysis-2/maxwin/BulkDock/SCRATCH/505737/C235-P164

>  <fragmenstein_runtime>  (101) 
11.834451675415039

>  <fragmenstein_outcome>  (101) 
too moved

>  <fragmenstein_mode>  (101) 
expansion

>  <fragmenstein_error>  (101) 


$$$$
C236-P198
     RDKit          3D

 54 57  0  0  0  0  0  0  0  0999 V2000
   -1.8904    1.7660   26.8447 N   0  0  0  0  0  0  0  0  0  0  0  0
   -1.5509    0.8361   27.8297 C   0  0  0  0  0  0  0  0  0  0  0  0
   -0.9398    1.2523   29.0055 C   0  0  0  0  0  0  0  0  0  0  0  0
   -0.7548    0.3391   30.0449 C   0  0  0  0  0  0  0  0  0  0  0  0
   -1.2050   -0.9649   29.8780 C   0  0  0  0  0  0  0  0  0  0  0  0
   -1.0440   -2.1579   31.1544 S   0  0  0  0  0  0  0  0  0  0  0  0
   -0.6332   -1.4657   32.3589 O   0  0  0  0  0  0  0  0  0  0  0  0
   -2.1985   -3.0292   31.1554 O   0  0  0  0  0  0  0  0  0  0  0  0
    0.2829   -3.0243   30.6559 N   0  0  0  0  0  0  0  0  0  0  0  0
    0.2365   -3.8542   29.4461 C   0  0  0  0  0  0  0  0  0  0  0  0
    1.0458   -5.1210   29.6709 C   0  0  0  0  0  0  0  0  0  0  0  0
    0.4877   -5.9292   30.7902 C   0  0  0  0  0  0  0  0  0  0  0  0
   -0.6320   -6.7489   30.7172 N   0  0  0  0  0  0  0  0  0  0  0  0
   -0.7108   -7.2723   31.9156 C   0  0  0  0  0  0  0  0  0  0  0  0
   -1.6238   -8.1759   32.2538 O   0  0  0  0  0  0  0  0  0  0  0  0
    0.3521   -6.8255   32.8255 C   0  0  0  0  0  0  0  0  0  0  0  0
    0.7473   -7.0685   34.0739 C   0  0  0  0  0  0  0  0  0  0  0  0
    2.0183   -6.4768   34.4211 N   0  0  0  0  0  0  0  0  0  0  0  0
    2.8436   -7.0247   35.7745 S   0  0  0  0  0  0  0  0  0  0  0  0
    1.9258   -7.7766   36.5952 O   0  0  0  0  0  0  0  0  0  0  0  0
    4.0689   -7.6194   35.2918 O   0  0  0  0  0  0  0  0  0  0  0  0
    3.2082   -5.6012   36.5596 N   0  0  0  0  0  0  0  0  0  0  0  0
    2.1167   -4.9550   37.3107 C   0  0  0  0  0  0  0  0  0  0  0  0
    1.4808   -3.8471   36.4725 C   0  0  0  0  0  0  0  0  0  0  0  0
    2.4571   -2.8072   36.1387 N   0  0  0  0  0  0  0  0  0  0  0  0
    3.6315   -3.3602   35.4612 C   0  0  0  0  0  0  0  0  0  0  0  0
    4.2383   -4.6294   36.1145 C   0  0  0  0  0  0  0  0  0  0  0  0
    2.7299   -5.7610   33.4413 C   0  0  0  0  0  0  0  0  0  0  0  0
    2.2922   -5.4160   32.2856 N   0  0  0  0  0  0  0  0  0  0  0  0
    1.0963   -5.9556   31.9724 C   0  0  0  0  0  0  0  0  0  0  0  0
   -1.8121   -1.3009   28.6893 C   0  0  0  0  0  0  0  0  0  0  0  0
   -1.9891   -0.4197   27.6777 N   0  0  0  0  0  0  0  0  0  0  0  0
   -2.7100    2.2853   27.1614 H   0  0  0  0  0  0  0  0  0  0  0  0
   -1.1427    2.4330   26.6971 H   0  0  0  0  0  0  0  0  0  0  0  0
   -0.6231    2.2842   29.1223 H   0  0  0  0  0  0  0  0  0  0  0  0
   -0.2787    0.6578   30.9676 H   0  0  0  0  0  0  0  0  0  0  0  0
    1.1738   -2.8051   31.0957 H   0  0  0  0  0  0  0  0  0  0  0  0
   -0.7909   -4.1087   29.1737 H   0  0  0  0  0  0  0  0  0  0  0  0
    0.6751   -3.2854   28.6197 H   0  0  0  0  0  0  0  0  0  0  0  0
    2.0829   -4.8242   29.8795 H   0  0  0  0  0  0  0  0  0  0  0  0
    1.1357   -5.7259   28.7779 H   0  0  0  0  0  0  0  0  0  0  0  0
   -1.5294   -8.5253   33.1575 H   0  0  0  0  0  0  0  0  0  0  0  0
    0.2374   -7.7154   34.7791 H   0  0  0  0  0  0  0  0  0  0  0  0
    2.5291   -4.5446   38.2414 H   0  0  0  0  0  0  0  0  0  0  0  0
    1.3467   -5.6682   37.6195 H   0  0  0  0  0  0  0  0  0  0  0  0
    1.0298   -4.2446   35.5578 H   0  0  0  0  0  0  0  0  0  0  0  0
    0.6718   -3.3863   37.0499 H   0  0  0  0  0  0  0  0  0  0  0  0
    2.0144   -2.0973   35.5530 H   0  0  0  0  0  0  0  0  0  0  0  0
    4.4084   -2.5876   35.4289 H   0  0  0  0  0  0  0  0  0  0  0  0
    3.3621   -3.5433   34.4205 H   0  0  0  0  0  0  0  0  0  0  0  0
    4.7992   -4.3296   37.0096 H   0  0  0  0  0  0  0  0  0  0  0  0
    4.9710   -5.0983   35.4515 H   0  0  0  0  0  0  0  0  0  0  0  0
    3.7611   -5.4964   33.7040 H   0  0  0  0  0  0  0  0  0  0  0  0
   -2.2063   -2.2913   28.4930 H   0  0  0  0  0  0  0  0  0  0  0  0
  1  2  1  0
  2  3  2  0
  3  4  1  0
  4  5  2  0
  5  6  1  0
  6  7  2  0
  6  8  2  0
  6  9  1  0
  9 10  1  0
 10 11  1  0
 11 12  1  0
 12 13  1  0
 13 14  2  0
 14 15  1  0
 14 16  1  0
 16 17  2  0
 17 18  1  0
 18 19  1  0
 19 20  2  0
 19 21  2  0
 19 22  1  0
 22 23  1  0
 23 24  1  0
 24 25  1  0
 25 26  1  0
 26 27  1  0
 18 28  1  0
 28 29  2  0
 29 30  1  0
  5 31  1  0
 31 32  2  0
 32  2  1  0
 30 12  2  0
 30 16  1  0
 27 22  1  0
  1 33  1  0
  1 34  1  0
  3 35  1  0
  4 36  1  0
  9 37  1  0
 10 38  1  0
 10 39  1  0
 11 40  1  0
 11 41  1  0
 15 42  1  0
 17 43  1  0
 23 44  1  0
 23 45  1  0
 24 46  1  0
 24 47  1  0
 25 48  1  0
 26 49  1  0
 26 50  1  0
 27 51  1  0
 27 52  1  0
 28 53  1  0
 31 54  1  0
M  END
>  <Energy>  (102) 
-131.96890819331159

>  <compound_id>  (102) 
236

>  <target_id>  (102) 
1

>  <reference_id>  (102) 
198

>  <inspiration_ids>  (102) 
[198, 165]

>  <energy_score>  (102) 
-87.90728872741785

>  <distance_score>  (102) 
1.4015840985845835

>  <path>  (102) 
/opt/xchem-fragalysis-2/maxwin/BulkDock/SCRATCH/505737/C236-P198/C236-P198.minimised.mol

>  <scratch_subdir>  (102) 
/opt/xchem-fragalysis-2/maxwin/BulkDock/SCRATCH/505737/C236-P198

>  <fragmenstein_runtime>  (102) 
3.775438070297241

>  <fragmenstein_outcome>  (102) 
too moved

>  <fragmenstein_mode>  (102) 
expansion

>  <fragmenstein_error>  (102) 


$$$$
C236-P165
     RDKit          3D

 54 57  0  0  0  0  0  0  0  0999 V2000
   -1.5684    1.6777   26.7469 N   0  0  0  0  0  0  0  0  0  0  0  0
   -1.2894    0.8136   27.7980 C   0  0  0  0  0  0  0  0  0  0  0  0
   -0.6061    1.2347   28.9250 C   0  0  0  0  0  0  0  0  0  0  0  0
   -0.4661    0.3546   29.9999 C   0  0  0  0  0  0  0  0  0  0  0  0
   -0.9914   -0.9263   29.8856 C   0  0  0  0  0  0  0  0  0  0  0  0
   -0.9170   -2.0801   31.2031 S   0  0  0  0  0  0  0  0  0  0  0  0
   -0.5049   -1.3702   32.3955 O   0  0  0  0  0  0  0  0  0  0  0  0
   -2.1085   -2.9005   31.1996 O   0  0  0  0  0  0  0  0  0  0  0  0
    0.3772   -3.0170   30.7480 N   0  0  0  0  0  0  0  0  0  0  0  0
    0.3122   -3.8191   29.5187 C   0  0  0  0  0  0  0  0  0  0  0  0
    1.1632   -5.0608   29.6901 C   0  0  0  0  0  0  0  0  0  0  0  0
    0.6807   -5.8906   30.8283 C   0  0  0  0  0  0  0  0  0  0  0  0
   -0.4806   -6.6642   30.8538 N   0  0  0  0  0  0  0  0  0  0  0  0
   -0.4752   -7.1545   32.0668 C   0  0  0  0  0  0  0  0  0  0  0  0
   -1.3970   -7.9708   32.5509 O   0  0  0  0  0  0  0  0  0  0  0  0
    0.6823   -6.7632   32.8737 C   0  0  0  0  0  0  0  0  0  0  0  0
    1.1780   -7.0459   34.0759 C   0  0  0  0  0  0  0  0  0  0  0  0
    2.4971   -6.5019   34.3071 N   0  0  0  0  0  0  0  0  0  0  0  0
    3.4102   -6.9997   35.6177 S   0  0  0  0  0  0  0  0  0  0  0  0
    2.7253   -8.0783   36.2880 O   0  0  0  0  0  0  0  0  0  0  0  0
    4.7653   -7.1864   35.1485 O   0  0  0  0  0  0  0  0  0  0  0  0
    3.3909   -5.6376   36.5733 N   0  0  0  0  0  0  0  0  0  0  0  0
    2.1624   -5.3688   37.3447 C   0  0  0  0  0  0  0  0  0  0  0  0
    1.2555   -4.3763   36.6123 C   0  0  0  0  0  0  0  0  0  0  0  0
    1.9356   -3.1063   36.3355 N   0  0  0  0  0  0  0  0  0  0  0  0
    3.1788   -3.3176   35.5912 C   0  0  0  0  0  0  0  0  0  0  0  0
    4.1112   -4.3912   36.1979 C   0  0  0  0  0  0  0  0  0  0  0  0
    3.1007   -5.6892   33.3279 C   0  0  0  0  0  0  0  0  0  0  0  0
    2.5726   -5.3385   32.2110 N   0  0  0  0  0  0  0  0  0  0  0  0
    1.3776   -5.9178   31.9623 C   0  0  0  0  0  0  0  0  0  0  0  0
   -1.5890   -1.2861   28.7006 C   0  0  0  0  0  0  0  0  0  0  0  0
   -1.7407   -0.4365   27.6644 N   0  0  0  0  0  0  0  0  0  0  0  0
   -2.1501    1.1342   26.1086 H   0  0  0  0  0  0  0  0  0  0  0  0
   -2.0832    2.4922   27.0754 H   0  0  0  0  0  0  0  0  0  0  0  0
   -0.2199    2.2477   28.9797 H   0  0  0  0  0  0  0  0  0  0  0  0
    0.0377    0.6800   30.9053 H   0  0  0  0  0  0  0  0  0  0  0  0
    1.2825   -2.7627   31.1380 H   0  0  0  0  0  0  0  0  0  0  0  0
   -0.7162   -4.1036   29.2830 H   0  0  0  0  0  0  0  0  0  0  0  0
    0.7063   -3.2246   28.6880 H   0  0  0  0  0  0  0  0  0  0  0  0
    2.1989   -4.7320   29.8540 H   0  0  0  0  0  0  0  0  0  0  0  0
    1.2395   -5.6470   28.7852 H   0  0  0  0  0  0  0  0  0  0  0  0
   -2.1187   -8.0951   31.9162 H   0  0  0  0  0  0  0  0  0  0  0  0
    0.7039   -7.6912   34.8084 H   0  0  0  0  0  0  0  0  0  0  0  0
    2.4548   -4.9623   38.3215 H   0  0  0  0  0  0  0  0  0  0  0  0
    1.6066   -6.2865   37.5607 H   0  0  0  0  0  0  0  0  0  0  0  0
    0.8739   -4.7973   35.6787 H   0  0  0  0  0  0  0  0  0  0  0  0
    0.3823   -4.1683   37.2407 H   0  0  0  0  0  0  0  0  0  0  0  0
    1.3107   -2.4980   35.8027 H   0  0  0  0  0  0  0  0  0  0  0  0
    3.7252   -2.3684   35.5504 H   0  0  0  0  0  0  0  0  0  0  0  0
    2.9227   -3.5576   34.5589 H   0  0  0  0  0  0  0  0  0  0  0  0
    4.5635   -3.9937   37.1160 H   0  0  0  0  0  0  0  0  0  0  0  0
    4.9461   -4.6011   35.5233 H   0  0  0  0  0  0  0  0  0  0  0  0
    4.1165   -5.3370   33.5645 H   0  0  0  0  0  0  0  0  0  0  0  0
   -1.9966   -2.2746   28.5293 H   0  0  0  0  0  0  0  0  0  0  0  0
  1  2  1  0
  2  3  2  0
  3  4  1  0
  4  5  2  0
  5  6  1  0
  6  7  2  0
  6  8  2  0
  6  9  1  0
  9 10  1  0
 10 11  1  0
 11 12  1  0
 12 13  1  0
 13 14  2  0
 14 15  1  0
 14 16  1  0
 16 17  2  0
 17 18  1  0
 18 19  1  0
 19 20  2  0
 19 21  2  0
 19 22  1  0
 22 23  1  0
 23 24  1  0
 24 25  1  0
 25 26  1  0
 26 27  1  0
 18 28  1  0
 28 29  2  0
 29 30  1  0
  5 31  1  0
 31 32  2  0
 32  2  1  0
 30 12  2  0
 30 16  1  0
 27 22  1  0
  1 33  1  0
  1 34  1  0
  3 35  1  0
  4 36  1  0
  9 37  1  0
 10 38  1  0
 10 39  1  0
 11 40  1  0
 11 41  1  0
 15 42  1  0
 17 43  1  0
 23 44  1  0
 23 45  1  0
 24 46  1  0
 24 47  1  0
 25 48  1  0
 26 49  1  0
 26 50  1  0
 27 51  1  0
 27 52  1  0
 28 53  1  0
 31 54  1  0
M  END
>  <Energy>  (103) 
-155.37227306546967

>  <compound_id>  (103) 
236

>  <target_id>  (103) 
1

>  <reference_id>  (103) 
165

>  <inspiration_ids>  (103) 
[198, 165]

>  <energy_score>  (103) 
-111.31065359957489

>  <distance_score>  (103) 
1.3951964523538336

>  <path>  (103) 
/opt/xchem-fragalysis-2/maxwin/BulkDock/SCRATCH/505737/C236-P165/C236-P165.minimised.mol

>  <scratch_subdir>  (103) 
/opt/xchem-fragalysis-2/maxwin/BulkDock/SCRATCH/505737/C236-P165

>  <fragmenstein_runtime>  (103) 
3.876319408416748

>  <fragmenstein_outcome>  (103) 
too moved

>  <fragmenstein_mode>  (103) 
expansion

>  <fragmenstein_error>  (103) 


$$$$
C237-P198
     RDKit          3D

 66 70  0  0  0  0  0  0  0  0999 V2000
   -2.0613    1.8620   26.7275 N   0  0  0  0  0  0  0  0  0  0  0  0
   -1.7561    0.9548   27.7338 C   0  0  0  0  0  0  0  0  0  0  0  0
   -1.1213    1.3530   28.8989 C   0  0  0  0  0  0  0  0  0  0  0  0
   -0.8838    0.4088   29.8975 C   0  0  0  0  0  0  0  0  0  0  0  0
   -1.2589   -0.9076   29.6625 C   0  0  0  0  0  0  0  0  0  0  0  0
   -0.8365   -2.2007   30.7578 S   0  0  0  0  0  0  0  0  0  0  0  0
   -0.3613   -1.6358   32.0042 O   0  0  0  0  0  0  0  0  0  0  0  0
   -1.8612   -3.2183   30.7441 O   0  0  0  0  0  0  0  0  0  0  0  0
    0.5302   -2.7208   29.9256 N   0  0  0  0  0  0  0  0  0  0  0  0
    0.7525   -4.1746   29.7179 C   0  0  0  0  0  0  0  0  0  0  0  0
    1.5344   -4.7775   30.9207 C   0  0  0  0  0  0  0  0  0  0  0  0
    1.9810   -3.6072   31.7534 N   0  0  0  0  0  0  0  0  0  0  0  0
    3.0248   -3.7730   32.7544 C   0  0  0  0  0  0  0  0  0  0  0  0
    4.6399   -4.1743   32.0751 S   0  0  0  0  0  0  0  0  0  0  0  0
    3.2063   -2.0728   33.3812 Cl  0  0  0  0  0  0  0  0  0  0  0  0
    2.5501   -4.6971   33.9320 C   0  0  0  0  0  0  0  0  0  0  0  0
    2.9017   -5.8110   34.0669 O   0  0  0  0  0  0  0  0  0  0  0  0
    1.4920   -3.8555   34.7431 N   0  0  0  0  0  0  0  0  0  0  0  0
    0.7272   -4.1957   35.9450 C   0  0  0  0  0  0  0  0  0  0  0  0
    0.8134   -5.7094   36.3483 C   0  0  0  0  0  0  0  0  0  0  0  0
   -0.2085   -6.5808   36.2903 N   0  0  0  0  0  0  0  0  0  0  0  0
    0.3269   -7.6446   36.9044 N   0  0  0  0  0  0  0  0  0  0  0  0
    1.5618   -7.3590   37.3915 C   0  0  0  0  0  0  0  0  0  0  0  0
    2.1559   -8.0809   38.4524 C   0  0  0  0  0  0  0  0  0  0  0  0
    1.4927   -8.4747   39.5946 C   0  0  0  0  0  0  0  0  0  0  0  0
    2.3496   -9.1467   40.5011 C   0  0  0  0  0  0  0  0  0  0  0  0
    3.6356   -9.2325   40.0197 C   0  0  0  0  0  0  0  0  0  0  0  0
    3.8040   -8.4943   38.4858 S   0  0  0  0  0  0  0  0  0  0  0  0
    1.9436   -6.1896   36.9513 N   0  0  0  0  0  0  0  0  0  0  0  0
    1.0357   -3.2416   37.1401 C   0  0  0  0  0  0  0  0  0  0  0  0
   -0.1295   -2.3517   36.6706 C   0  0  0  0  0  0  0  0  0  0  0  0
   -0.7050   -3.5857   35.9510 C   0  0  0  0  0  0  0  0  0  0  0  0
    0.5779   -5.7716   31.5690 C   0  0  0  0  0  0  0  0  0  0  0  0
   -0.0088   -5.3700   32.7043 N   0  0  0  0  0  0  0  0  0  0  0  0
   -0.8869   -6.2171   33.2649 C   0  0  0  0  0  0  0  0  0  0  0  0
   -1.2353   -7.4169   32.7162 C   0  0  0  0  0  0  0  0  0  0  0  0
   -0.6405   -7.6829   31.5207 C   0  0  0  0  0  0  0  0  0  0  0  0
   -1.0059   -8.8104   30.8520 O   0  0  0  0  0  0  0  0  0  0  0  0
    0.2846   -6.9212   30.9206 N   0  0  0  0  0  0  0  0  0  0  0  0
   -1.8330   -1.2333   28.4543 C   0  0  0  0  0  0  0  0  0  0  0  0
   -2.0995   -0.3162   27.5003 N   0  0  0  0  0  0  0  0  0  0  0  0
   -2.6130    1.3357   26.0517 H   0  0  0  0  0  0  0  0  0  0  0  0
   -2.6000    2.6434   27.0962 H   0  0  0  0  0  0  0  0  0  0  0  0
   -0.8218    2.3887   29.0248 H   0  0  0  0  0  0  0  0  0  0  0  0
   -0.3767    0.6987   30.8123 H   0  0  0  0  0  0  0  0  0  0  0  0
    1.3616   -2.3135   30.3729 H   0  0  0  0  0  0  0  0  0  0  0  0
   -0.1860   -4.6777   29.4682 H   0  0  0  0  0  0  0  0  0  0  0  0
    1.3905   -4.2462   28.8274 H   0  0  0  0  0  0  0  0  0  0  0  0
    2.3962   -5.3312   30.5346 H   0  0  0  0  0  0  0  0  0  0  0  0
    1.1441   -3.3192   32.2783 H   0  0  0  0  0  0  0  0  0  0  0  0
    4.8484   -2.9600   31.5507 H   0  0  0  0  0  0  0  0  0  0  0  0
    1.4933   -2.8948   34.4101 H   0  0  0  0  0  0  0  0  0  0  0  0
   -0.2190   -8.4835   37.0631 H   0  0  0  0  0  0  0  0  0  0  0  0
    0.4407   -8.3013   39.7850 H   0  0  0  0  0  0  0  0  0  0  0  0
    2.0380   -9.5606   41.4525 H   0  0  0  0  0  0  0  0  0  0  0  0
    4.4901   -9.6922   40.4968 H   0  0  0  0  0  0  0  0  0  0  0  0
    0.8699   -3.6785   38.1329 H   0  0  0  0  0  0  0  0  0  0  0  0
    2.0184   -2.7600   37.1369 H   0  0  0  0  0  0  0  0  0  0  0  0
   -0.7541   -1.9313   37.4629 H   0  0  0  0  0  0  0  0  0  0  0  0
    0.1740   -1.5458   35.9927 H   0  0  0  0  0  0  0  0  0  0  0  0
   -1.1461   -3.3757   34.9721 H   0  0  0  0  0  0  0  0  0  0  0  0
   -1.4431   -4.1266   36.5553 H   0  0  0  0  0  0  0  0  0  0  0  0
   -1.3383   -5.8761   34.1890 H   0  0  0  0  0  0  0  0  0  0  0  0
   -1.9401   -8.0909   33.1748 H   0  0  0  0  0  0  0  0  0  0  0  0
   -0.2384   -8.9767   30.2717 H   0  0  0  0  0  0  0  0  0  0  0  0
   -2.0903   -2.2515   28.1893 H   0  0  0  0  0  0  0  0  0  0  0  0
  1  2  1  0
  2  3  2  0
  3  4  1  0
  4  5  2  0
  5  6  1  0
  6  7  2  0
  6  8  2  0
  6  9  1  0
  9 10  1  0
 10 11  1  0
 11 12  1  0
 12 13  1  0
 13 14  1  0
 13 15  1  0
 13 16  1  0
 16 17  2  0
 16 18  1  0
 18 19  1  0
 19 20  1  0
 20 21  2  0
 21 22  1  0
 22 23  1  0
 23 24  1  0
 24 25  2  0
 25 26  1  0
 26 27  2  0
 27 28  1  0
 23 29  2  0
 19 30  1  0
 30 31  1  0
 31 32  1  0
 11 33  1  0
 33 34  2  0
 34 35  1  0
 35 36  2  0
 36 37  1  0
 37 38  1  0
 37 39  2  0
  5 40  1  0
 40 41  2  0
 41  2  1  0
 32 19  1  0
 39 33  1  0
 29 20  1  0
 28 24  1  0
  1 42  1  0
  1 43  1  0
  3 44  1  0
  4 45  1  0
  9 46  1  0
 10 47  1  0
 10 48  1  0
 11 49  1  0
 12 50  1  0
 14 51  1  0
 18 52  1  0
 22 53  1  0
 25 54  1  0
 26 55  1  0
 27 56  1  0
 30 57  1  0
 30 58  1  0
 31 59  1  0
 31 60  1  0
 32 61  1  0
 32 62  1  0
 35 63  1  0
 36 64  1  0
 38 65  1  0
 40 66  1  0
M  END
>  <Energy>  (104) 
-2.7717824361137233

>  <compound_id>  (104) 
237

>  <target_id>  (104) 
1

>  <reference_id>  (104) 
198

>  <inspiration_ids>  (104) 
[198, 166]

>  <energy_score>  (104) 
-114.68049964312141

>  <distance_score>  (104) 
1.1922806424228807

>  <path>  (104) 
/opt/xchem-fragalysis-2/maxwin/BulkDock/SCRATCH/505737/C237-P198/C237-P198.minimised.mol

>  <scratch_subdir>  (104) 
/opt/xchem-fragalysis-2/maxwin/BulkDock/SCRATCH/505737/C237-P198

>  <fragmenstein_runtime>  (104) 
6.627597332000732

>  <fragmenstein_outcome>  (104) 
too moved

>  <fragmenstein_mode>  (104) 
expansion

>  <fragmenstein_error>  (104) 


$$$$
C237-P166
     RDKit          3D

 66 70  0  0  0  0  0  0  0  0999 V2000
   -1.8423    1.8919   26.5241 N   0  0  0  0  0  0  0  0  0  0  0  0
   -1.5807    1.0006   27.5546 C   0  0  0  0  0  0  0  0  0  0  0  0
   -0.9284    1.4028   28.7090 C   0  0  0  0  0  0  0  0  0  0  0  0
   -0.7491    0.4847   29.7424 C   0  0  0  0  0  0  0  0  0  0  0  0
   -1.2059   -0.8117   29.5543 C   0  0  0  0  0  0  0  0  0  0  0  0
   -0.8696   -2.0875   30.7036 S   0  0  0  0  0  0  0  0  0  0  0  0
   -0.3669   -1.4805   31.9168 O   0  0  0  0  0  0  0  0  0  0  0  0
   -1.9834   -3.0059   30.7421 O   0  0  0  0  0  0  0  0  0  0  0  0
    0.4455   -2.7843   29.8641 N   0  0  0  0  0  0  0  0  0  0  0  0
    0.5287   -4.2766   29.8513 C   0  0  0  0  0  0  0  0  0  0  0  0
    1.3564   -4.7949   31.0612 C   0  0  0  0  0  0  0  0  0  0  0  0
    1.6406   -3.6205   31.9302 N   0  0  0  0  0  0  0  0  0  0  0  0
    2.8326   -3.5432   32.7534 C   0  0  0  0  0  0  0  0  0  0  0  0
    4.3763   -4.1192   32.0362 S   0  0  0  0  0  0  0  0  0  0  0  0
    3.0281   -1.7278   32.8973 Cl  0  0  0  0  0  0  0  0  0  0  0  0
    2.6050   -3.9943   34.2392 C   0  0  0  0  0  0  0  0  0  0  0  0
    3.4605   -4.4216   34.9208 O   0  0  0  0  0  0  0  0  0  0  0  0
    1.1112   -3.6533   34.5776 N   0  0  0  0  0  0  0  0  0  0  0  0
    0.3438   -3.8623   35.8074 C   0  0  0  0  0  0  0  0  0  0  0  0
    0.4363   -5.3374   36.3595 C   0  0  0  0  0  0  0  0  0  0  0  0
   -0.5951   -6.1939   36.4783 N   0  0  0  0  0  0  0  0  0  0  0  0
   -0.0018   -7.2350   37.0929 N   0  0  0  0  0  0  0  0  0  0  0  0
    1.2995   -6.9714   37.3697 C   0  0  0  0  0  0  0  0  0  0  0  0
    2.1293   -7.7351   38.2250 C   0  0  0  0  0  0  0  0  0  0  0  0
    3.4997   -7.6797   38.2835 C   0  0  0  0  0  0  0  0  0  0  0  0
    4.0183   -8.4794   39.3393 C   0  0  0  0  0  0  0  0  0  0  0  0
    3.0293   -9.1209   40.0462 C   0  0  0  0  0  0  0  0  0  0  0  0
    1.4875   -8.7322   39.4476 S   0  0  0  0  0  0  0  0  0  0  0  0
    1.6289   -5.8332   36.8167 N   0  0  0  0  0  0  0  0  0  0  0  0
    0.6575   -2.7939   36.8982 C   0  0  0  0  0  0  0  0  0  0  0  0
   -0.4943   -1.9479   36.3230 C   0  0  0  0  0  0  0  0  0  0  0  0
   -1.0830   -3.2536   35.7541 C   0  0  0  0  0  0  0  0  0  0  0  0
    0.6420   -5.9458   31.7604 C   0  0  0  0  0  0  0  0  0  0  0  0
    1.1298   -6.2848   32.9598 N   0  0  0  0  0  0  0  0  0  0  0  0
    0.4117   -7.1670   33.6668 C   0  0  0  0  0  0  0  0  0  0  0  0
   -0.7375   -7.7599   33.2271 C   0  0  0  0  0  0  0  0  0  0  0  0
   -1.0542   -7.4680   31.9346 C   0  0  0  0  0  0  0  0  0  0  0  0
   -2.0795   -8.1278   31.3216 O   0  0  0  0  0  0  0  0  0  0  0  0
   -0.3911   -6.5832   31.1721 N   0  0  0  0  0  0  0  0  0  0  0  0
   -1.7902   -1.1478   28.3534 C   0  0  0  0  0  0  0  0  0  0  0  0
   -1.9868   -0.2588   27.3604 N   0  0  0  0  0  0  0  0  0  0  0  0
   -2.4109    1.3821   25.8496 H   0  0  0  0  0  0  0  0  0  0  0  0
   -2.3519    2.7050   26.8661 H   0  0  0  0  0  0  0  0  0  0  0  0
   -0.5708    2.4239   28.7998 H   0  0  0  0  0  0  0  0  0  0  0  0
   -0.2290    0.7776   30.6499 H   0  0  0  0  0  0  0  0  0  0  0  0
    0.5575   -2.3853   28.9257 H   0  0  0  0  0  0  0  0  0  0  0  0
   -0.4705   -4.6976   29.7427 H   0  0  0  0  0  0  0  0  0  0  0  0
    1.0657   -4.5415   28.9315 H   0  0  0  0  0  0  0  0  0  0  0  0
    2.2810   -5.2080   30.6447 H   0  0  0  0  0  0  0  0  0  0  0  0
    1.6787   -2.8011   31.3175 H   0  0  0  0  0  0  0  0  0  0  0  0
    5.0647   -4.0349   33.1867 H   0  0  0  0  0  0  0  0  0  0  0  0
    0.6674   -3.2201   33.7662 H   0  0  0  0  0  0  0  0  0  0  0  0
   -0.5038   -8.0903   37.2886 H   0  0  0  0  0  0  0  0  0  0  0  0
    4.0997   -7.0664   37.6194 H   0  0  0  0  0  0  0  0  0  0  0  0
    5.0720   -8.5732   39.5727 H   0  0  0  0  0  0  0  0  0  0  0  0
    3.1422   -9.7827   40.8936 H   0  0  0  0  0  0  0  0  0  0  0  0
    0.4785   -3.1243   37.9290 H   0  0  0  0  0  0  0  0  0  0  0  0
    1.6453   -2.3252   36.8539 H   0  0  0  0  0  0  0  0  0  0  0  0
   -0.1780   -1.2335   35.5542 H   0  0  0  0  0  0  0  0  0  0  0  0
   -1.1145   -1.4279   37.0573 H   0  0  0  0  0  0  0  0  0  0  0  0
   -1.5320   -3.1592   34.7616 H   0  0  0  0  0  0  0  0  0  0  0  0
   -1.8109   -3.7182   36.4274 H   0  0  0  0  0  0  0  0  0  0  0  0
    0.8404   -7.4308   34.6229 H   0  0  0  0  0  0  0  0  0  0  0  0
   -1.2811   -8.4627   33.8388 H   0  0  0  0  0  0  0  0  0  0  0  0
   -2.6295   -8.5442   32.0126 H   0  0  0  0  0  0  0  0  0  0  0  0
   -2.1190   -2.1546   28.1287 H   0  0  0  0  0  0  0  0  0  0  0  0
  1  2  1  0
  2  3  2  0
  3  4  1  0
  4  5  2  0
  5  6  1  0
  6  7  2  0
  6  8  2  0
  6  9  1  0
  9 10  1  0
 10 11  1  0
 11 12  1  0
 12 13  1  0
 13 14  1  0
 13 15  1  0
 13 16  1  0
 16 17  2  0
 16 18  1  0
 18 19  1  0
 19 20  1  0
 20 21  2  0
 21 22  1  0
 22 23  1  0
 23 24  1  0
 24 25  2  0
 25 26  1  0
 26 27  2  0
 27 28  1  0
 23 29  2  0
 19 30  1  0
 30 31  1  0
 31 32  1  0
 11 33  1  0
 33 34  2  0
 34 35  1  0
 35 36  2  0
 36 37  1  0
 37 38  1  0
 37 39  2  0
  5 40  1  0
 40 41  2  0
 41  2  1  0
 32 19  1  0
 39 33  1  0
 29 20  1  0
 28 24  1  0
  1 42  1  0
  1 43  1  0
  3 44  1  0
  4 45  1  0
  9 46  1  0
 10 47  1  0
 10 48  1  0
 11 49  1  0
 12 50  1  0
 14 51  1  0
 18 52  1  0
 22 53  1  0
 25 54  1  0
 26 55  1  0
 27 56  1  0
 30 57  1  0
 30 58  1  0
 31 59  1  0
 31 60  1  0
 32 61  1  0
 32 62  1  0
 35 63  1  0
 36 64  1  0
 38 65  1  0
 40 66  1  0
M  END
>  <Energy>  (105) 
7.2752123292248196

>  <compound_id>  (105) 
237

>  <target_id>  (105) 
1

>  <reference_id>  (105) 
166

>  <inspiration_ids>  (105) 
[198, 166]

>  <energy_score>  (105) 
-104.63350487778293

>  <distance_score>  (105) 
1.2517665581046014

>  <path>  (105) 
/opt/xchem-fragalysis-2/maxwin/BulkDock/SCRATCH/505737/C237-P166/C237-P166.minimised.mol

>  <scratch_subdir>  (105) 
/opt/xchem-fragalysis-2/maxwin/BulkDock/SCRATCH/505737/C237-P166

>  <fragmenstein_runtime>  (105) 
5.873287677764893

>  <fragmenstein_outcome>  (105) 
too moved

>  <fragmenstein_mode>  (105) 
expansion

>  <fragmenstein_error>  (105) 


$$$$
C239-P198
     RDKit          3D

 41 43  0  0  0  0  0  0  0  0999 V2000
   -1.9355    1.5120   26.7943 N   0  0  0  0  0  0  0  0  0  0  0  0
   -1.6228    0.6709   27.8554 C   0  0  0  0  0  0  0  0  0  0  0  0
   -0.9471    1.1312   28.9723 C   0  0  0  0  0  0  0  0  0  0  0  0
   -0.7096    0.2481   30.0258 C   0  0  0  0  0  0  0  0  0  0  0  0
   -1.1419   -1.0701   29.9067 C   0  0  0  0  0  0  0  0  0  0  0  0
   -0.9013   -2.2331   31.1952 S   0  0  0  0  0  0  0  0  0  0  0  0
   -0.5786   -1.4950   32.3970 O   0  0  0  0  0  0  0  0  0  0  0  0
   -1.9632   -3.2146   31.1773 O   0  0  0  0  0  0  0  0  0  0  0  0
    0.5336   -2.9811   30.7265 N   0  0  0  0  0  0  0  0  0  0  0  0
    0.5351   -3.8610   29.5393 C   0  0  0  0  0  0  0  0  0  0  0  0
    1.3399   -5.1287   29.8420 C   0  0  0  0  0  0  0  0  0  0  0  0
    0.5793   -6.0427   30.7452 C   0  0  0  0  0  0  0  0  0  0  0  0
   -0.2066   -7.0284   30.3593 N   0  0  0  0  0  0  0  0  0  0  0  0
   -0.7956   -7.4974   31.4962 C   0  0  0  0  0  0  0  0  0  0  0  0
   -1.7144   -8.4700   31.4835 O   0  0  0  0  0  0  0  0  0  0  0  0
   -0.3321   -6.8398   32.6131 C   0  0  0  0  0  0  0  0  0  0  0  0
   -0.5463   -6.8631   34.0214 C   0  0  0  0  0  0  0  0  0  0  0  0
    0.1466   -5.9957   34.7943 C   0  0  0  0  0  0  0  0  0  0  0  0
   -0.0903   -6.0152   36.5048 S   0  0  0  0  0  0  0  0  0  0  0  0
   -1.3743   -5.4366   36.8268 O   0  0  0  0  0  0  0  0  0  0  0  0
    0.3265   -7.3036   37.0118 O   0  0  0  0  0  0  0  0  0  0  0  0
    0.9744   -4.9912   37.1055 F   0  0  0  0  0  0  0  0  0  0  0  0
    1.1163   -5.0618   34.2492 C   0  0  0  0  0  0  0  0  0  0  0  0
    1.3132   -5.0511   32.9288 C   0  0  0  0  0  0  0  0  0  0  0  0
    0.5823   -5.9142   32.1171 N   0  0  0  0  0  0  0  0  0  0  0  0
   -1.7902   -1.4509   28.7557 C   0  0  0  0  0  0  0  0  0  0  0  0
   -2.0241   -0.6006   27.7342 N   0  0  0  0  0  0  0  0  0  0  0  0
   -2.4804    2.3108   27.1132 H   0  0  0  0  0  0  0  0  0  0  0  0
   -2.4935    0.9320   26.1657 H   0  0  0  0  0  0  0  0  0  0  0  0
   -0.6248    2.1663   29.0259 H   0  0  0  0  0  0  0  0  0  0  0  0
   -0.1974    0.5971   30.9180 H   0  0  0  0  0  0  0  0  0  0  0  0
    1.3375   -2.3622   30.8365 H   0  0  0  0  0  0  0  0  0  0  0  0
   -0.4805   -4.1291   29.2336 H   0  0  0  0  0  0  0  0  0  0  0  0
    1.0050   -3.3144   28.7147 H   0  0  0  0  0  0  0  0  0  0  0  0
    1.5548   -5.6565   28.9086 H   0  0  0  0  0  0  0  0  0  0  0  0
    2.3179   -4.8774   30.2681 H   0  0  0  0  0  0  0  0  0  0  0  0
   -2.0452   -8.6604   32.3780 H   0  0  0  0  0  0  0  0  0  0  0  0
   -1.2548   -7.5679   34.4489 H   0  0  0  0  0  0  0  0  0  0  0  0
    1.6528   -4.3804   34.9022 H   0  0  0  0  0  0  0  0  0  0  0  0
    2.0139   -4.3716   32.4638 H   0  0  0  0  0  0  0  0  0  0  0  0
   -2.1631   -2.4562   28.6009 H   0  0  0  0  0  0  0  0  0  0  0  0
  1  2  1  0
  2  3  2  0
  3  4  1  0
  4  5  2  0
  5  6  1  0
  6  7  2  0
  6  8  2  0
  6  9  1  0
  9 10  1  0
 10 11  1  0
 11 12  1  0
 12 13  2  0
 13 14  1  0
 14 15  1  0
 14 16  2  0
 16 17  1  0
 17 18  2  0
 18 19  1  0
 19 20  2  0
 19 21  2  0
 19 22  1  0
 18 23  1  0
 23 24  2  0
 24 25  1  0
  5 26  1  0
 26 27  2  0
 27  2  1  0
 25 12  1  0
 25 16  1  0
  1 28  1  0
  1 29  1  0
  3 30  1  0
  4 31  1  0
  9 32  1  0
 10 33  1  0
 10 34  1  0
 11 35  1  0
 11 36  1  0
 15 37  1  0
 17 38  1  0
 23 39  1  0
 24 40  1  0
 26 41  1  0
M  END
>  <Energy>  (106) 
-61.2857162359754

>  <compound_id>  (106) 
239

>  <target_id>  (106) 
1

>  <reference_id>  (106) 
198

>  <inspiration_ids>  (106) 
[198, 168]

>  <energy_score>  (106) 
-61.28786193792749

>  <distance_score>  (106) 
1.2846324164040697

>  <path>  (106) 
/opt/xchem-fragalysis-2/maxwin/BulkDock/SCRATCH/505737/C239-P198/C239-P198.minimised.mol

>  <scratch_subdir>  (106) 
/opt/xchem-fragalysis-2/maxwin/BulkDock/SCRATCH/505737/C239-P198

>  <fragmenstein_runtime>  (106) 
3.1330084800720215

>  <fragmenstein_outcome>  (106) 
too moved

>  <fragmenstein_mode>  (106) 
expansion

>  <fragmenstein_error>  (106) 


$$$$
C239-P168
     RDKit          3D

 41 43  0  0  0  0  0  0  0  0999 V2000
   -1.4381    1.6561   26.8675 N   0  0  0  0  0  0  0  0  0  0  0  0
   -1.0902    0.7645   27.8732 C   0  0  0  0  0  0  0  0  0  0  0  0
   -0.4847    1.1845   29.0412 C   0  0  0  0  0  0  0  0  0  0  0  0
   -0.3147    0.2675   30.0798 C   0  0  0  0  0  0  0  0  0  0  0  0
   -0.7088   -1.0509   29.8804 C   0  0  0  0  0  0  0  0  0  0  0  0
   -0.6566   -2.2338   31.1729 S   0  0  0  0  0  0  0  0  0  0  0  0
   -0.3478   -1.5330   32.4000 O   0  0  0  0  0  0  0  0  0  0  0  0
   -1.7961   -3.1191   31.0843 O   0  0  0  0  0  0  0  0  0  0  0  0
    0.7284   -3.1047   30.7821 N   0  0  0  0  0  0  0  0  0  0  0  0
    0.7186   -3.9543   29.5773 C   0  0  0  0  0  0  0  0  0  0  0  0
    1.4004   -5.2875   29.8714 C   0  0  0  0  0  0  0  0  0  0  0  0
    0.5512   -6.1408   30.7511 C   0  0  0  0  0  0  0  0  0  0  0  0
   -0.3072   -7.0451   30.3223 N   0  0  0  0  0  0  0  0  0  0  0  0
   -0.9077   -7.5381   31.4400 C   0  0  0  0  0  0  0  0  0  0  0  0
   -1.8715   -8.4617   31.4039 O   0  0  0  0  0  0  0  0  0  0  0  0
   -0.4118   -6.9570   32.5785 C   0  0  0  0  0  0  0  0  0  0  0  0
   -0.6285   -7.0642   33.9770 C   0  0  0  0  0  0  0  0  0  0  0  0
    0.1072   -6.2929   34.8050 C   0  0  0  0  0  0  0  0  0  0  0  0
   -0.1065   -6.4777   36.5105 S   0  0  0  0  0  0  0  0  0  0  0  0
   -0.3977   -7.8640   36.8088 O   0  0  0  0  0  0  0  0  0  0  0  0
    0.9531   -5.7860   37.2160 O   0  0  0  0  0  0  0  0  0  0  0  0
   -1.4345   -5.6776   36.8636 F   0  0  0  0  0  0  0  0  0  0  0  0
    1.1052   -5.3545   34.3105 C   0  0  0  0  0  0  0  0  0  0  0  0
    1.3055   -5.2679   32.9908 C   0  0  0  0  0  0  0  0  0  0  0  0
    0.5464   -6.0558   32.1292 N   0  0  0  0  0  0  0  0  0  0  0  0
   -1.1990   -1.4069   28.6468 C   0  0  0  0  0  0  0  0  0  0  0  0
   -1.4035   -0.5154   27.6579 N   0  0  0  0  0  0  0  0  0  0  0  0
   -2.0373    2.3964   27.2288 H   0  0  0  0  0  0  0  0  0  0  0  0
   -1.9531    1.0919   26.1909 H   0  0  0  0  0  0  0  0  0  0  0  0
   -0.1932    2.2237   29.1557 H   0  0  0  0  0  0  0  0  0  0  0  0
    0.1013    0.5971   31.0277 H   0  0  0  0  0  0  0  0  0  0  0  0
    1.5808   -2.5785   30.9777 H   0  0  0  0  0  0  0  0  0  0  0  0
   -0.2987   -4.1459   29.2232 H   0  0  0  0  0  0  0  0  0  0  0  0
    1.2627   -3.4296   28.7846 H   0  0  0  0  0  0  0  0  0  0  0  0
    1.5561   -5.8190   28.9242 H   0  0  0  0  0  0  0  0  0  0  0  0
    2.3933   -5.1341   30.3079 H   0  0  0  0  0  0  0  0  0  0  0  0
   -2.1948   -8.6858   32.2946 H   0  0  0  0  0  0  0  0  0  0  0  0
   -1.3525   -7.7831   34.3537 H   0  0  0  0  0  0  0  0  0  0  0  0
    1.6697   -4.7438   35.0100 H   0  0  0  0  0  0  0  0  0  0  0  0
    2.0361   -4.5937   32.5664 H   0  0  0  0  0  0  0  0  0  0  0  0
   -1.5193   -2.4151   28.4051 H   0  0  0  0  0  0  0  0  0  0  0  0
  1  2  1  0
  2  3  2  0
  3  4  1  0
  4  5  2  0
  5  6  1  0
  6  7  2  0
  6  8  2  0
  6  9  1  0
  9 10  1  0
 10 11  1  0
 11 12  1  0
 12 13  2  0
 13 14  1  0
 14 15  1  0
 14 16  2  0
 16 17  1  0
 17 18  2  0
 18 19  1  0
 19 20  2  0
 19 21  2  0
 19 22  1  0
 18 23  1  0
 23 24  2  0
 24 25  1  0
  5 26  1  0
 26 27  2  0
 27  2  1  0
 25 12  1  0
 25 16  1  0
  1 28  1  0
  1 29  1  0
  3 30  1  0
  4 31  1  0
  9 32  1  0
 10 33  1  0
 10 34  1  0
 11 35  1  0
 11 36  1  0
 15 37  1  0
 17 38  1  0
 23 39  1  0
 24 40  1  0
 26 41  1  0
M  END
>  <Energy>  (107) 
-60.448777228013633

>  <compound_id>  (107) 
239

>  <target_id>  (107) 
1

>  <reference_id>  (107) 
168

>  <inspiration_ids>  (107) 
[198, 168]

>  <energy_score>  (107) 
-60.450922929967476

>  <distance_score>  (107) 
1.2692375409368213

>  <path>  (107) 
/opt/xchem-fragalysis-2/maxwin/BulkDock/SCRATCH/505737/C239-P168/C239-P168.minimised.mol

>  <scratch_subdir>  (107) 
/opt/xchem-fragalysis-2/maxwin/BulkDock/SCRATCH/505737/C239-P168

>  <fragmenstein_runtime>  (107) 
3.839064598083496

>  <fragmenstein_outcome>  (107) 
too moved

>  <fragmenstein_mode>  (107) 
expansion

>  <fragmenstein_error>  (107) 


$$$$
C241-P198
     RDKit          3D

 36 37  0  0  0  0  0  0  0  0999 V2000
    0.1010   -6.2882   35.1233 C   0  0  0  0  0  0  0  0  0  0  0  0
   -0.0665   -6.5411   33.6530 C   0  0  0  0  0  0  0  0  0  0  0  0
   -1.0156   -7.4393   33.2201 C   0  0  0  0  0  0  0  0  0  0  0  0
   -1.1000   -7.6097   31.8626 C   0  0  0  0  0  0  0  0  0  0  0  0
   -1.9861   -8.4844   31.3134 O   0  0  0  0  0  0  0  0  0  0  0  0
   -0.3552   -6.9535   30.9681 N   0  0  0  0  0  0  0  0  0  0  0  0
    0.5234   -6.0764   31.4767 C   0  0  0  0  0  0  0  0  0  0  0  0
    1.3226   -5.2553   30.5043 C   0  0  0  0  0  0  0  0  0  0  0  0
    0.5483   -4.0302   30.0292 C   0  0  0  0  0  0  0  0  0  0  0  0
    0.4058   -3.0492   31.1057 N   0  0  0  0  0  0  0  0  0  0  0  0
   -1.0376   -2.2742   31.3993 S   0  0  0  0  0  0  0  0  0  0  0  0
   -0.8365   -1.4860   32.5960 O   0  0  0  0  0  0  0  0  0  0  0  0
   -2.1112   -3.2419   31.3107 O   0  0  0  0  0  0  0  0  0  0  0  0
   -1.1526   -1.1567   30.0508 C   0  0  0  0  0  0  0  0  0  0  0  0
   -0.7226    0.1633   30.1519 C   0  0  0  0  0  0  0  0  0  0  0  0
   -0.9212    1.0205   29.0681 C   0  0  0  0  0  0  0  0  0  0  0  0
   -1.5607    0.5337   27.9405 C   0  0  0  0  0  0  0  0  0  0  0  0
   -1.8573    1.3546   26.8566 N   0  0  0  0  0  0  0  0  0  0  0  0
   -1.9562   -0.7411   27.8324 N   0  0  0  0  0  0  0  0  0  0  0  0
   -1.7515   -1.5662   28.8818 C   0  0  0  0  0  0  0  0  0  0  0  0
    0.7282   -5.8678   32.7942 N   0  0  0  0  0  0  0  0  0  0  0  0
    0.8913   -5.5522   35.3019 H   0  0  0  0  0  0  0  0  0  0  0  0
    0.3742   -7.2153   35.6374 H   0  0  0  0  0  0  0  0  0  0  0  0
   -0.8300   -5.9007   35.5491 H   0  0  0  0  0  0  0  0  0  0  0  0
   -1.6417   -7.9753   33.9167 H   0  0  0  0  0  0  0  0  0  0  0  0
   -2.5590   -8.8563   32.0099 H   0  0  0  0  0  0  0  0  0  0  0  0
    2.2694   -4.9567   30.9700 H   0  0  0  0  0  0  0  0  0  0  0  0
    1.5759   -5.8809   29.6408 H   0  0  0  0  0  0  0  0  0  0  0  0
   -0.4238   -4.3229   29.6209 H   0  0  0  0  0  0  0  0  0  0  0  0
    1.1093   -3.5501   29.2193 H   0  0  0  0  0  0  0  0  0  0  0  0
    1.1497   -2.8899   31.7835 H   0  0  0  0  0  0  0  0  0  0  0  0
   -0.2474    0.5321   31.0563 H   0  0  0  0  0  0  0  0  0  0  0  0
   -0.6005    2.0562   29.1094 H   0  0  0  0  0  0  0  0  0  0  0  0
   -2.3809    0.7440   26.2267 H   0  0  0  0  0  0  0  0  0  0  0  0
   -2.4343    2.1385   27.1540 H   0  0  0  0  0  0  0  0  0  0  0  0
   -2.1147   -2.5770   28.7394 H   0  0  0  0  0  0  0  0  0  0  0  0
  1  2  1  0
  2  3  2  0
  3  4  1  0
  4  5  1  0
  4  6  2  0
  6  7  1  0
  7  8  1  0
  8  9  1  0
  9 10  1  0
 10 11  1  0
 11 12  2  0
 11 13  2  0
 11 14  1  0
 14 15  2  0
 15 16  1  0
 16 17  2  0
 17 18  1  0
 17 19  1  0
 19 20  2  0
  7 21  2  0
 21  2  1  0
 20 14  1  0
  1 22  1  0
  1 23  1  0
  1 24  1  0
  3 25  1  0
  5 26  1  0
  8 27  1  0
  8 28  1  0
  9 29  1  0
  9 30  1  0
 10 31  1  0
 15 32  1  0
 16 33  1  0
 18 34  1  0
 18 35  1  0
 20 36  1  0
M  END
>  <Energy>  (108) 
-139.85379424000942

>  <compound_id>  (108) 
241

>  <target_id>  (108) 
1

>  <reference_id>  (108) 
198

>  <inspiration_ids>  (108) 
[198, 190]

>  <energy_score>  (108) 
-50.78759317661384

>  <distance_score>  (108) 
0.41137809677423515

>  <path>  (108) 
/opt/xchem-fragalysis-2/maxwin/BulkDock/SCRATCH/505737/C241-P198/C241-P198.minimised.mol

>  <scratch_subdir>  (108) 
/opt/xchem-fragalysis-2/maxwin/BulkDock/SCRATCH/505737/C241-P198

>  <fragmenstein_runtime>  (108) 
1.8037846088409424

>  <fragmenstein_outcome>  (108) 
acceptable

>  <fragmenstein_mode>  (108) 
expansion

>  <fragmenstein_error>  (108) 


$$$$
C241-P190
     RDKit          3D

 36 37  0  0  0  0  0  0  0  0999 V2000
    0.1074   -6.4005   35.1289 C   0  0  0  0  0  0  0  0  0  0  0  0
   -0.0580   -6.6583   33.6591 C   0  0  0  0  0  0  0  0  0  0  0  0
   -0.9917   -7.5736   33.2267 C   0  0  0  0  0  0  0  0  0  0  0  0
   -1.0900   -7.7264   31.8676 C   0  0  0  0  0  0  0  0  0  0  0  0
   -1.9790   -8.5987   31.3175 O   0  0  0  0  0  0  0  0  0  0  0  0
   -0.3622   -7.0505   30.9722 N   0  0  0  0  0  0  0  0  0  0  0  0
    0.5183   -6.1751   31.4823 C   0  0  0  0  0  0  0  0  0  0  0  0
    1.3390   -5.3689   30.5146 C   0  0  0  0  0  0  0  0  0  0  0  0
    0.6036   -4.1203   30.0426 C   0  0  0  0  0  0  0  0  0  0  0  0
    0.4828   -3.1406   31.1229 N   0  0  0  0  0  0  0  0  0  0  0  0
   -0.9417   -2.3310   31.4135 S   0  0  0  0  0  0  0  0  0  0  0  0
   -0.7366   -1.5756   32.6301 O   0  0  0  0  0  0  0  0  0  0  0  0
   -2.0407   -3.2655   31.2880 O   0  0  0  0  0  0  0  0  0  0  0  0
   -1.0042   -1.1815   30.0892 C   0  0  0  0  0  0  0  0  0  0  0  0
   -0.5981    0.1411   30.2439 C   0  0  0  0  0  0  0  0  0  0  0  0
   -0.7727    1.0271   29.1801 C   0  0  0  0  0  0  0  0  0  0  0  0
   -1.3820    0.5697   28.0253 C   0  0  0  0  0  0  0  0  0  0  0  0
   -1.6909    1.4241   26.9720 N   0  0  0  0  0  0  0  0  0  0  0  0
   -1.7446   -0.7082   27.8635 N   0  0  0  0  0  0  0  0  0  0  0  0
   -1.5463   -1.5669   28.8854 C   0  0  0  0  0  0  0  0  0  0  0  0
    0.7231   -5.9693   32.8001 N   0  0  0  0  0  0  0  0  0  0  0  0
   -0.8292   -6.0275   35.5553 H   0  0  0  0  0  0  0  0  0  0  0  0
    0.8859   -5.6516   35.3055 H   0  0  0  0  0  0  0  0  0  0  0  0
    0.3961   -7.3223   35.6438 H   0  0  0  0  0  0  0  0  0  0  0  0
   -1.6012   -8.1299   33.9231 H   0  0  0  0  0  0  0  0  0  0  0  0
   -2.5504   -8.9734   32.0132 H   0  0  0  0  0  0  0  0  0  0  0  0
    2.2932   -5.0995   30.9836 H   0  0  0  0  0  0  0  0  0  0  0  0
    1.5787   -5.9976   29.6498 H   0  0  0  0  0  0  0  0  0  0  0  0
   -0.3731   -4.3843   29.6261 H   0  0  0  0  0  0  0  0  0  0  0  0
    1.1827   -3.6522   29.2384 H   0  0  0  0  0  0  0  0  0  0  0  0
    1.2086   -3.0386   31.8313 H   0  0  0  0  0  0  0  0  0  0  0  0
   -0.1594    0.4892   31.1747 H   0  0  0  0  0  0  0  0  0  0  0  0
   -0.4614    2.0630   29.2589 H   0  0  0  0  0  0  0  0  0  0  0  0
   -2.1979    0.8255   26.3176 H   0  0  0  0  0  0  0  0  0  0  0  0
   -2.2853    2.1859   27.2905 H   0  0  0  0  0  0  0  0  0  0  0  0
   -1.8822   -2.5801   28.6935 H   0  0  0  0  0  0  0  0  0  0  0  0
  1  2  1  0
  2  3  2  0
  3  4  1  0
  4  5  1  0
  4  6  2  0
  6  7  1  0
  7  8  1  0
  8  9  1  0
  9 10  1  0
 10 11  1  0
 11 12  2  0
 11 13  2  0
 11 14  1  0
 14 15  2  0
 15 16  1  0
 16 17  2  0
 17 18  1  0
 17 19  1  0
 19 20  2  0
  7 21  2  0
 21  2  1  0
 20 14  1  0
  1 22  1  0
  1 23  1  0
  1 24  1  0
  3 25  1  0
  5 26  1  0
  8 27  1  0
  8 28  1  0
  9 29  1  0
  9 30  1  0
 10 31  1  0
 15 32  1  0
 16 33  1  0
 18 34  1  0
 18 35  1  0
 20 36  1  0
M  END
>  <Energy>  (109) 
-139.38169132642247

>  <compound_id>  (109) 
241

>  <target_id>  (109) 
1

>  <reference_id>  (109) 
190

>  <inspiration_ids>  (109) 
[198, 190]

>  <energy_score>  (109) 
-50.315490263029126

>  <distance_score>  (109) 
0.38007845510490035

>  <path>  (109) 
/opt/xchem-fragalysis-2/maxwin/BulkDock/SCRATCH/505737/C241-P190/C241-P190.minimised.mol

>  <scratch_subdir>  (109) 
/opt/xchem-fragalysis-2/maxwin/BulkDock/SCRATCH/505737/C241-P190

>  <fragmenstein_runtime>  (109) 
1.7178077697753906

>  <fragmenstein_outcome>  (109) 
acceptable

>  <fragmenstein_mode>  (109) 
expansion

>  <fragmenstein_error>  (109) 


$$$$
C241-P198
     RDKit          2D

  0  0  0  0  0  0  0  0  0  0999 V2000
M  END
>  <compound_id>  (110) 
241

>  <target_id>  (110) 
1

>  <reference_id>  (110) 
198

>  <inspiration_ids>  (110) 
[198, 197]

>  <energy_score>  (110) 
nan

>  <distance_score>  (110) 
nan

>  <path>  (110) 
/opt/xchem-fragalysis-2/maxwin/BulkDock/SCRATCH/505737/C241-P198/C241-P198.minimised.mol

>  <scratch_subdir>  (110) 
/opt/xchem-fragalysis-2/maxwin/BulkDock/SCRATCH/505737/C241-P198

>  <fragmenstein_runtime>  (110) 
0.3095386028289795

>  <fragmenstein_outcome>  (110) 
too distant

>  <fragmenstein_mode>  (110) 
expansion

>  <fragmenstein_error>  (110) 
DistanceError: hit0+hit1

$$$$
C200-P198
     RDKit          3D

 39 42  0  0  0  0  0  0  0  0999 V2000
   -1.9168    1.1853   26.8216 N   0  0  0  0  0  0  0  0  0  0  0  0
   -1.5483    0.5058   27.9716 C   0  0  0  0  0  0  0  0  0  0  0  0
   -0.9064    1.1498   29.0168 C   0  0  0  0  0  0  0  0  0  0  0  0
   -0.6326    0.4350   30.1814 C   0  0  0  0  0  0  0  0  0  0  0  0
   -1.0266   -0.8956   30.2527 C   0  0  0  0  0  0  0  0  0  0  0  0
   -0.7562   -1.8440   31.7119 S   0  0  0  0  0  0  0  0  0  0  0  0
   -0.9252   -0.9457   32.8335 O   0  0  0  0  0  0  0  0  0  0  0  0
   -1.5657   -3.0447   31.5961 O   0  0  0  0  0  0  0  0  0  0  0  0
    0.9542   -2.1859   31.5704 N   0  0  0  0  0  0  0  0  0  0  0  0
    1.2201   -3.5756   31.7553 C   0  0  0  0  0  0  0  0  0  0  0  0
    1.3289   -4.1970   33.0305 C   0  0  0  0  0  0  0  0  0  0  0  0
    0.9065   -5.4701   33.2036 C   0  0  0  0  0  0  0  0  0  0  0  0
    0.8955   -5.8864   34.5106 N   0  0  0  0  0  0  0  0  0  0  0  0
   -0.0801   -6.6901   34.7793 C   0  0  0  0  0  0  0  0  0  0  0  0
   -1.0078   -7.3144   33.7985 C   0  0  0  0  0  0  0  0  0  0  0  0
   -2.0586   -8.0759   34.2715 N   0  0  0  0  0  0  0  0  0  0  0  0
   -0.6236   -7.1691   32.5151 C   0  0  0  0  0  0  0  0  0  0  0  0
   -1.2289   -7.9922   31.5674 O   0  0  0  0  0  0  0  0  0  0  0  0
    0.3571   -6.2348   32.1231 N   0  0  0  0  0  0  0  0  0  0  0  0
    0.3695   -5.6291   30.8610 C   0  0  0  0  0  0  0  0  0  0  0  0
   -0.3158   -5.8879   29.7579 C   0  0  0  0  0  0  0  0  0  0  0  0
   -0.2081   -4.6252   29.0083 C   0  0  0  0  0  0  0  0  0  0  0  0
    0.6168   -3.7536   29.4716 N   0  0  0  0  0  0  0  0  0  0  0  0
    0.9388   -4.3025   30.6784 C   0  0  0  0  0  0  0  0  0  0  0  0
   -1.6749   -1.4569   29.1741 C   0  0  0  0  0  0  0  0  0  0  0  0
   -1.9273   -0.7774   28.0368 N   0  0  0  0  0  0  0  0  0  0  0  0
   -1.1565    1.7170   26.4270 H   0  0  0  0  0  0  0  0  0  0  0  0
   -2.2971    0.4706   26.1988 H   0  0  0  0  0  0  0  0  0  0  0  0
   -0.6484    2.2008   28.9367 H   0  0  0  0  0  0  0  0  0  0  0  0
   -0.1398    0.9216   31.0186 H   0  0  0  0  0  0  0  0  0  0  0  0
    1.2135   -1.9249   30.6098 H   0  0  0  0  0  0  0  0  0  0  0  0
    1.6641   -3.5986   33.8707 H   0  0  0  0  0  0  0  0  0  0  0  0
   -0.2246   -7.0052   35.8269 H   0  0  0  0  0  0  0  0  0  0  0  0
   -2.4421   -8.5730   33.4607 H   0  0  0  0  0  0  0  0  0  0  0  0
   -1.6916   -8.8256   34.8715 H   0  0  0  0  0  0  0  0  0  0  0  0
   -0.4886   -8.2827   31.0047 H   0  0  0  0  0  0  0  0  0  0  0  0
   -0.9772   -6.7002   29.5403 H   0  0  0  0  0  0  0  0  0  0  0  0
   -0.8307   -4.4330   28.1295 H   0  0  0  0  0  0  0  0  0  0  0  0
   -2.0391   -2.4779   29.1715 H   0  0  0  0  0  0  0  0  0  0  0  0
  1  2  1  0
  2  3  2  0
  3  4  1  0
  4  5  2  0
  5  6  1  0
  6  7  2  0
  6  8  2  0
  6  9  1  0
  9 10  1  0
 10 11  1  0
 11 12  2  0
 12 13  1  0
 13 14  2  0
 14 15  1  0
 15 16  1  0
 15 17  2  0
 17 18  1  0
 17 19  1  0
 19 20  1  0
 20 21  2  0
 21 22  1  0
 22 23  2  0
 23 24  1  0
  5 25  1  0
 25 26  2  0
 26  2  1  0
 24 10  2  0
 19 12  1  0
 24 20  1  0
  1 27  1  0
  1 28  1  0
  3 29  1  0
  4 30  1  0
  9 31  1  0
 11 32  1  0
 14 33  1  0
 16 34  1  0
 16 35  1  0
 18 36  1  0
 21 37  1  0
 22 38  1  0
 25 39  1  0
M  END
>  <Energy>  (111) 
-11.157568914973739

>  <compound_id>  (111) 
200

>  <target_id>  (111) 
1

>  <reference_id>  (111) 
198

>  <inspiration_ids>  (111) 
[198, 201]

>  <energy_score>  (111) 
-71.25975529165018

>  <distance_score>  (111) 
1.3530799369177822

>  <path>  (111) 
/opt/xchem-fragalysis-2/maxwin/BulkDock/SCRATCH/505737/C200-P198/C200-P198.minimised.mol

>  <scratch_subdir>  (111) 
/opt/xchem-fragalysis-2/maxwin/BulkDock/SCRATCH/505737/C200-P198

>  <fragmenstein_runtime>  (111) 
3.0288946628570557

>  <fragmenstein_outcome>  (111) 
too moved

>  <fragmenstein_mode>  (111) 
expansion

>  <fragmenstein_error>  (111) 


$$$$
C200-P201
     RDKit          3D

 39 42  0  0  0  0  0  0  0  0999 V2000
   -1.9288    1.3983   26.9476 N   0  0  0  0  0  0  0  0  0  0  0  0
   -1.5520    0.5190   27.9519 C   0  0  0  0  0  0  0  0  0  0  0  0
   -0.5023    0.8188   28.8062 C   0  0  0  0  0  0  0  0  0  0  0  0
   -0.2205   -0.0533   29.8545 C   0  0  0  0  0  0  0  0  0  0  0  0
   -0.9823   -1.2105   29.9798 C   0  0  0  0  0  0  0  0  0  0  0  0
   -0.7515   -2.3134   31.3192 S   0  0  0  0  0  0  0  0  0  0  0  0
   -0.3211   -1.5122   32.4477 O   0  0  0  0  0  0  0  0  0  0  0  0
   -1.9221   -3.1611   31.4212 O   0  0  0  0  0  0  0  0  0  0  0  0
    0.6369   -3.1763   30.7867 N   0  0  0  0  0  0  0  0  0  0  0  0
    0.7030   -4.4612   31.3944 C   0  0  0  0  0  0  0  0  0  0  0  0
    1.3524   -4.6651   32.6627 C   0  0  0  0  0  0  0  0  0  0  0  0
    1.0667   -5.7762   33.3834 C   0  0  0  0  0  0  0  0  0  0  0  0
    1.5512   -5.8172   34.6661 N   0  0  0  0  0  0  0  0  0  0  0  0
    0.8969   -6.6240   35.4429 C   0  0  0  0  0  0  0  0  0  0  0  0
   -0.2329   -7.5427   35.0844 C   0  0  0  0  0  0  0  0  0  0  0  0
   -0.8524   -8.2750   36.0782 N   0  0  0  0  0  0  0  0  0  0  0  0
   -0.4823   -7.5675   33.7626 C   0  0  0  0  0  0  0  0  0  0  0  0
   -1.5208   -8.3532   33.2743 O   0  0  0  0  0  0  0  0  0  0  0  0
    0.2332   -6.7876   32.8556 N   0  0  0  0  0  0  0  0  0  0  0  0
   -0.1134   -6.7302   31.5294 C   0  0  0  0  0  0  0  0  0  0  0  0
   -0.7340   -7.6241   30.7703 C   0  0  0  0  0  0  0  0  0  0  0  0
   -1.1580   -6.7465   29.7147 C   0  0  0  0  0  0  0  0  0  0  0  0
   -0.6449   -5.5553   29.6724 N   0  0  0  0  0  0  0  0  0  0  0  0
    0.0539   -5.4799   30.8247 C   0  0  0  0  0  0  0  0  0  0  0  0
   -1.9963   -1.4406   29.0828 C   0  0  0  0  0  0  0  0  0  0  0  0
   -2.3019   -0.5817   28.0894 N   0  0  0  0  0  0  0  0  0  0  0  0
   -1.1446    1.6436   26.3651 H   0  0  0  0  0  0  0  0  0  0  0  0
   -2.6573    0.9166   26.4214 H   0  0  0  0  0  0  0  0  0  0  0  0
    0.0542    1.7422   28.6850 H   0  0  0  0  0  0  0  0  0  0  0  0
    0.5696    0.1846   30.5598 H   0  0  0  0  0  0  0  0  0  0  0  0
    1.4276   -2.6003   31.0788 H   0  0  0  0  0  0  0  0  0  0  0  0
    1.9564   -3.8748   33.0918 H   0  0  0  0  0  0  0  0  0  0  0  0
    1.2075   -6.6696   36.5007 H   0  0  0  0  0  0  0  0  0  0  0  0
   -1.1016   -9.2413   35.7981 H   0  0  0  0  0  0  0  0  0  0  0  0
   -0.2828   -8.3904   36.9170 H   0  0  0  0  0  0  0  0  0  0  0  0
   -1.8270   -8.8878   34.0358 H   0  0  0  0  0  0  0  0  0  0  0  0
   -1.0321   -8.6279   30.9845 H   0  0  0  0  0  0  0  0  0  0  0  0
   -1.9057   -7.1119   29.0062 H   0  0  0  0  0  0  0  0  0  0  0  0
   -2.6289   -2.3175   29.1349 H   0  0  0  0  0  0  0  0  0  0  0  0
  1  2  1  0
  2  3  2  0
  3  4  1  0
  4  5  2  0
  5  6  1  0
  6  7  2  0
  6  8  2  0
  6  9  1  0
  9 10  1  0
 10 11  1  0
 11 12  2  0
 12 13  1  0
 13 14  2  0
 14 15  1  0
 15 16  1  0
 15 17  2  0
 17 18  1  0
 17 19  1  0
 19 20  1  0
 20 21  2  0
 21 22  1  0
 22 23  2  0
 23 24  1  0
  5 25  1  0
 25 26  2  0
 26  2  1  0
 24 10  2  0
 19 12  1  0
 24 20  1  0
  1 27  1  0
  1 28  1  0
  3 29  1  0
  4 30  1  0
  9 31  1  0
 11 32  1  0
 14 33  1  0
 16 34  1  0
 16 35  1  0
 18 36  1  0
 21 37  1  0
 22 38  1  0
 25 39  1  0
M  END
>  <Energy>  (112) 
-22.351083827753019

>  <compound_id>  (112) 
200

>  <target_id>  (112) 
1

>  <reference_id>  (112) 
201

>  <inspiration_ids>  (112) 
[198, 201]

>  <energy_score>  (112) 
-82.45327020443091

>  <distance_score>  (112) 
1.4597703964531563

>  <path>  (112) 
/opt/xchem-fragalysis-2/maxwin/BulkDock/SCRATCH/505737/C200-P201/C200-P201.minimised.mol

>  <scratch_subdir>  (112) 
/opt/xchem-fragalysis-2/maxwin/BulkDock/SCRATCH/505737/C200-P201

>  <fragmenstein_runtime>  (112) 
2.34743332862854

>  <fragmenstein_outcome>  (112) 
too moved

>  <fragmenstein_mode>  (112) 
expansion

>  <fragmenstein_error>  (112) 


$$$$
C202-P199
     RDKit          3D

 49 51  0  0  0  0  0  0  0  0999 V2000
    1.5015    0.7904   33.0052 C   0  0  0  0  0  0  0  0  0  0  0  0
    0.4305    0.9742   31.9454 C   0  0  0  0  0  0  0  0  0  0  0  0
    0.6473   -0.0089   30.9225 O   0  0  0  0  0  0  0  0  0  0  0  0
   -0.4529   -0.1707   30.1188 C   0  0  0  0  0  0  0  0  0  0  0  0
   -1.2825   -1.2776   30.2809 C   0  0  0  0  0  0  0  0  0  0  0  0
   -1.0911   -2.4095   31.5956 S   0  0  0  0  0  0  0  0  0  0  0  0
   -2.1202   -3.4245   31.4932 O   0  0  0  0  0  0  0  0  0  0  0  0
   -0.9158   -1.6508   32.8129 O   0  0  0  0  0  0  0  0  0  0  0  0
    0.3623   -3.1278   31.2211 N   0  0  0  0  0  0  0  0  0  0  0  0
    0.4840   -3.9956   30.0492 C   0  0  0  0  0  0  0  0  0  0  0  0
    1.2996   -5.2302   30.4086 C   0  0  0  0  0  0  0  0  0  0  0  0
    0.5872   -6.0949   31.4129 C   0  0  0  0  0  0  0  0  0  0  0  0
    0.8749   -5.8904   32.7131 N   0  0  0  0  0  0  0  0  0  0  0  0
    0.1518   -6.5909   33.6051 C   0  0  0  0  0  0  0  0  0  0  0  0
   -0.7829   -7.5279   33.2472 C   0  0  0  0  0  0  0  0  0  0  0  0
   -0.9440   -7.7042   31.8962 C   0  0  0  0  0  0  0  0  0  0  0  0
   -1.8378   -8.6124   31.4044 O   0  0  0  0  0  0  0  0  0  0  0  0
   -0.2858   -7.0104   30.9552 N   0  0  0  0  0  0  0  0  0  0  0  0
   -2.2972   -1.4852   29.3802 C   0  0  0  0  0  0  0  0  0  0  0  0
   -2.5507   -0.6406   28.3683 N   0  0  0  0  0  0  0  0  0  0  0  0
   -1.7637    0.4434   28.2177 C   0  0  0  0  0  0  0  0  0  0  0  0
   -0.6621    0.6941   29.0374 C   0  0  0  0  0  0  0  0  0  0  0  0
    0.2497    1.8568   28.7672 C   0  0  0  0  0  0  0  0  0  0  0  0
    0.1108    2.3818   27.3525 C   0  0  0  0  0  0  0  0  0  0  0  0
   -1.3570    2.6282   27.0111 C   0  0  0  0  0  0  0  0  0  0  0  0
   -1.4241    3.1479   25.6899 O   0  0  0  0  0  0  0  0  0  0  0  0
   -2.1549    1.3382   27.0832 C   0  0  0  0  0  0  0  0  0  0  0  0
    1.3821    1.5208   33.8102 H   0  0  0  0  0  0  0  0  0  0  0  0
    1.4582   -0.2167   33.4320 H   0  0  0  0  0  0  0  0  0  0  0  0
    2.4986    0.9071   32.5677 H   0  0  0  0  0  0  0  0  0  0  0  0
    0.5201    1.9798   31.5247 H   0  0  0  0  0  0  0  0  0  0  0  0
   -0.5616    0.8708   32.3990 H   0  0  0  0  0  0  0  0  0  0  0  0
    1.1847   -2.6918   31.6353 H   0  0  0  0  0  0  0  0  0  0  0  0
   -0.4963   -4.2900   29.6613 H   0  0  0  0  0  0  0  0  0  0  0  0
    0.9973   -3.4354   29.2600 H   0  0  0  0  0  0  0  0  0  0  0  0
    2.2691   -4.9245   30.8185 H   0  0  0  0  0  0  0  0  0  0  0  0
    1.5073   -5.8192   29.5103 H   0  0  0  0  0  0  0  0  0  0  0  0
    0.3462   -6.3661   34.6502 H   0  0  0  0  0  0  0  0  0  0  0  0
   -1.3416   -8.0705   33.9961 H   0  0  0  0  0  0  0  0  0  0  0  0
   -2.3560   -8.9663   32.1533 H   0  0  0  0  0  0  0  0  0  0  0  0
   -2.9690   -2.3349   29.4295 H   0  0  0  0  0  0  0  0  0  0  0  0
    1.2945    1.5682   28.9306 H   0  0  0  0  0  0  0  0  0  0  0  0
    0.0088    2.6646   29.4672 H   0  0  0  0  0  0  0  0  0  0  0  0
    0.5490    1.6756   26.6438 H   0  0  0  0  0  0  0  0  0  0  0  0
    0.6843    3.3095   27.2360 H   0  0  0  0  0  0  0  0  0  0  0  0
   -1.7703    3.3781   27.6971 H   0  0  0  0  0  0  0  0  0  0  0  0
   -2.3537    3.4049   25.5296 H   0  0  0  0  0  0  0  0  0  0  0  0
   -2.0484    0.7730   26.1540 H   0  0  0  0  0  0  0  0  0  0  0  0
   -3.2191    1.5906   27.1616 H   0  0  0  0  0  0  0  0  0  0  0  0
  1  2  1  0
  2  3  1  0
  3  4  1  0
  4  5  2  0
  5  6  1  0
  6  7  2  0
  6  8  2  0
  6  9  1  0
  9 10  1  0
 10 11  1  0
 11 12  1  0
 12 13  2  0
 13 14  1  0
 14 15  2  0
 15 16  1  0
 16 17  1  0
 16 18  2  0
  5 19  1  0
 19 20  2  0
 20 21  1  0
 21 22  2  0
 22 23  1  0
 23 24  1  0
 24 25  1  0
 25 26  1  0
 25 27  1  0
 22  4  1  0
 18 12  1  0
 27 21  1  0
  1 28  1  0
  1 29  1  0
  1 30  1  0
  2 31  1  0
  2 32  1  0
  9 33  1  0
 10 34  1  0
 10 35  1  0
 11 36  1  0
 11 37  1  0
 14 38  1  0
 15 39  1  0
 17 40  1  0
 19 41  1  0
 23 42  1  0
 23 43  1  0
 24 44  1  0
 24 45  1  0
 25 46  1  0
 26 47  1  0
 27 48  1  0
 27 49  1  0
M  END
>  <Energy>  (113) 
-79.045760843425228

>  <compound_id>  (113) 
202

>  <target_id>  (113) 
1

>  <reference_id>  (113) 
199

>  <inspiration_ids>  (113) 
[199, 13]

>  <energy_score>  (113) 
-78.88886681757188

>  <distance_score>  (113) 
1.2276199291961194

>  <path>  (113) 
/opt/xchem-fragalysis-2/maxwin/BulkDock/SCRATCH/505737/C202-P199/C202-P199.minimised.mol

>  <scratch_subdir>  (113) 
/opt/xchem-fragalysis-2/maxwin/BulkDock/SCRATCH/505737/C202-P199

>  <fragmenstein_runtime>  (113) 
3.4006309509277344

>  <fragmenstein_outcome>  (113) 
too moved

>  <fragmenstein_mode>  (113) 
expansion

>  <fragmenstein_error>  (113) 


$$$$
C202-P13
     RDKit          3D

 49 51  0  0  0  0  0  0  0  0999 V2000
    1.4837    0.9905   33.0248 C   0  0  0  0  0  0  0  0  0  0  0  0
    0.4327    1.0720   31.9326 C   0  0  0  0  0  0  0  0  0  0  0  0
    0.7730    0.1184   30.9181 O   0  0  0  0  0  0  0  0  0  0  0  0
   -0.2695   -0.1275   30.0621 C   0  0  0  0  0  0  0  0  0  0  0  0
   -0.9840   -1.3151   30.1564 C   0  0  0  0  0  0  0  0  0  0  0  0
   -0.8544   -2.4297   31.4951 S   0  0  0  0  0  0  0  0  0  0  0  0
   -1.9398   -3.3882   31.4109 O   0  0  0  0  0  0  0  0  0  0  0  0
   -0.6517   -1.6679   32.7071 O   0  0  0  0  0  0  0  0  0  0  0  0
    0.5656   -3.2184   31.1495 N   0  0  0  0  0  0  0  0  0  0  0  0
    0.6671   -4.1423   30.0190 C   0  0  0  0  0  0  0  0  0  0  0  0
    1.4203   -5.4032   30.4321 C   0  0  0  0  0  0  0  0  0  0  0  0
    0.6493   -6.1827   31.4604 C   0  0  0  0  0  0  0  0  0  0  0  0
    0.9169   -5.9172   32.7559 N   0  0  0  0  0  0  0  0  0  0  0  0
    0.1195   -6.5040   33.6643 C   0  0  0  0  0  0  0  0  0  0  0  0
   -0.8820   -7.3793   33.3330 C   0  0  0  0  0  0  0  0  0  0  0  0
   -1.0227   -7.6244   31.9900 C   0  0  0  0  0  0  0  0  0  0  0  0
   -1.9572   -8.5080   31.5315 O   0  0  0  0  0  0  0  0  0  0  0  0
   -0.2892   -7.0450   31.0313 N   0  0  0  0  0  0  0  0  0  0  0  0
   -1.8794   -1.6198   29.1638 C   0  0  0  0  0  0  0  0  0  0  0  0
   -2.2013   -0.7731   28.1725 N   0  0  0  0  0  0  0  0  0  0  0  0
   -1.5471    0.4004   28.1027 C   0  0  0  0  0  0  0  0  0  0  0  0
   -0.5064    0.7294   28.9763 C   0  0  0  0  0  0  0  0  0  0  0  0
    0.3270    1.9571   28.7406 C   0  0  0  0  0  0  0  0  0  0  0  0
    0.1764    2.4881   27.3276 C   0  0  0  0  0  0  0  0  0  0  0  0
   -1.3022    2.6494   26.9808 C   0  0  0  0  0  0  0  0  0  0  0  0
   -1.3973    3.2159   25.6817 O   0  0  0  0  0  0  0  0  0  0  0  0
   -2.0019    1.3015   26.9948 C   0  0  0  0  0  0  0  0  0  0  0  0
    1.2691    1.7040   33.8254 H   0  0  0  0  0  0  0  0  0  0  0  0
    1.5258   -0.0169   33.4510 H   0  0  0  0  0  0  0  0  0  0  0  0
    2.4776    1.2050   32.6181 H   0  0  0  0  0  0  0  0  0  0  0  0
    0.4372    2.0833   31.5164 H   0  0  0  0  0  0  0  0  0  0  0  0
   -0.5578    0.8709   32.3557 H   0  0  0  0  0  0  0  0  0  0  0  0
    1.3898   -2.9207   31.6676 H   0  0  0  0  0  0  0  0  0  0  0  0
   -0.3213   -4.4013   29.6267 H   0  0  0  0  0  0  0  0  0  0  0  0
    1.2185   -3.6386   29.2175 H   0  0  0  0  0  0  0  0  0  0  0  0
    2.4045   -5.1425   30.8406 H   0  0  0  0  0  0  0  0  0  0  0  0
    1.6013   -6.0379   29.5594 H   0  0  0  0  0  0  0  0  0  0  0  0
    0.3117   -6.2371   34.6994 H   0  0  0  0  0  0  0  0  0  0  0  0
   -1.4978   -7.8356   34.0937 H   0  0  0  0  0  0  0  0  0  0  0  0
   -2.5080   -8.7830   32.2861 H   0  0  0  0  0  0  0  0  0  0  0  0
   -2.3998   -2.5696   29.1322 H   0  0  0  0  0  0  0  0  0  0  0  0
    1.3857    1.7363   28.9190 H   0  0  0  0  0  0  0  0  0  0  0  0
    0.0220    2.7387   29.4445 H   0  0  0  0  0  0  0  0  0  0  0  0
    0.6626    1.8180   26.6113 H   0  0  0  0  0  0  0  0  0  0  0  0
    0.6929    3.4508   27.2299 H   0  0  0  0  0  0  0  0  0  0  0  0
   -1.7716    3.3399   27.6930 H   0  0  0  0  0  0  0  0  0  0  0  0
   -2.3224    3.5112   25.5698 H   0  0  0  0  0  0  0  0  0  0  0  0
   -1.8526    0.7817   26.0446 H   0  0  0  0  0  0  0  0  0  0  0  0
   -3.0826    1.4691   27.0701 H   0  0  0  0  0  0  0  0  0  0  0  0
  1  2  1  0
  2  3  1  0
  3  4  1  0
  4  5  2  0
  5  6  1  0
  6  7  2  0
  6  8  2  0
  6  9  1  0
  9 10  1  0
 10 11  1  0
 11 12  1  0
 12 13  2  0
 13 14  1  0
 14 15  2  0
 15 16  1  0
 16 17  1  0
 16 18  2  0
  5 19  1  0
 19 20  2  0
 20 21  1  0
 21 22  2  0
 22 23  1  0
 23 24  1  0
 24 25  1  0
 25 26  1  0
 25 27  1  0
 22  4  1  0
 18 12  1  0
 27 21  1  0
  1 28  1  0
  1 29  1  0
  1 30  1  0
  2 31  1  0
  2 32  1  0
  9 33  1  0
 10 34  1  0
 10 35  1  0
 11 36  1  0
 11 37  1  0
 14 38  1  0
 15 39  1  0
 17 40  1  0
 19 41  1  0
 23 42  1  0
 23 43  1  0
 24 44  1  0
 24 45  1  0
 25 46  1  0
 26 47  1  0
 27 48  1  0
 27 49  1  0
M  END
>  <Energy>  (114) 
-76.935835307268803

>  <compound_id>  (114) 
202

>  <target_id>  (114) 
1

>  <reference_id>  (114) 
13

>  <inspiration_ids>  (114) 
[199, 13]

>  <energy_score>  (114) 
-76.77894128141594

>  <distance_score>  (114) 
1.274907302788965

>  <path>  (114) 
/opt/xchem-fragalysis-2/maxwin/BulkDock/SCRATCH/505737/C202-P13/C202-P13.minimised.mol

>  <scratch_subdir>  (114) 
/opt/xchem-fragalysis-2/maxwin/BulkDock/SCRATCH/505737/C202-P13

>  <fragmenstein_runtime>  (114) 
2.79348087310791

>  <fragmenstein_outcome>  (114) 
too moved

>  <fragmenstein_mode>  (114) 
expansion

>  <fragmenstein_error>  (114) 


$$$$
C204-P199
     RDKit          3D

 50 52  0  0  0  0  0  0  0  0999 V2000
    4.5051   -6.4469   27.2618 C   0  0  0  0  0  0  0  0  0  0  0  0
    4.0228   -5.0468   27.4389 C   0  0  0  0  0  0  0  0  0  0  0  0
    4.6940   -4.0329   26.7216 C   0  0  0  0  0  0  0  0  0  0  0  0
    4.3292   -2.6957   26.8592 C   0  0  0  0  0  0  0  0  0  0  0  0
    3.2720   -2.3896   27.6947 C   0  0  0  0  0  0  0  0  0  0  0  0
    2.7861   -1.1615   27.8195 F   0  0  0  0  0  0  0  0  0  0  0  0
    2.6210   -3.3435   28.4059 C   0  0  0  0  0  0  0  0  0  0  0  0
    2.9933   -4.6663   28.3008 C   0  0  0  0  0  0  0  0  0  0  0  0
    2.1755   -5.3718   29.1437 N   0  0  0  0  0  0  0  0  0  0  0  0
    1.7122   -6.8124   29.0904 C   0  0  0  0  0  0  0  0  0  0  0  0
    2.0037   -7.6701   28.3674 O   0  0  0  0  0  0  0  0  0  0  0  0
    0.6654   -6.9351   30.1771 C   0  0  0  0  0  0  0  0  0  0  0  0
   -0.1611   -7.9935   30.3711 C   0  0  0  0  0  0  0  0  0  0  0  0
   -0.9334   -7.8584   31.4803 C   0  0  0  0  0  0  0  0  0  0  0  0
   -1.8227   -8.8431   31.7348 O   0  0  0  0  0  0  0  0  0  0  0  0
   -0.9535   -6.8049   32.3062 N   0  0  0  0  0  0  0  0  0  0  0  0
   -0.0838   -5.8380   32.0179 C   0  0  0  0  0  0  0  0  0  0  0  0
   -0.0799   -4.4981   32.6594 C   0  0  0  0  0  0  0  0  0  0  0  0
    0.3658   -3.4486   31.6214 C   0  0  0  0  0  0  0  0  0  0  0  0
   -0.0630   -2.1177   31.9989 N   0  0  0  0  0  0  0  0  0  0  0  0
   -1.6413   -1.6969   31.6292 S   0  0  0  0  0  0  0  0  0  0  0  0
   -2.3928   -2.9148   31.4064 O   0  0  0  0  0  0  0  0  0  0  0  0
   -2.0151   -0.7332   32.6370 O   0  0  0  0  0  0  0  0  0  0  0  0
   -1.4729   -0.8362   30.1191 C   0  0  0  0  0  0  0  0  0  0  0  0
   -0.6978    0.3155   30.0421 C   0  0  0  0  0  0  0  0  0  0  0  0
   -0.7610    1.0806   28.8817 C   0  0  0  0  0  0  0  0  0  0  0  0
   -1.6001    0.6710   27.8567 C   0  0  0  0  0  0  0  0  0  0  0  0
   -1.8459    1.4953   26.7694 N   0  0  0  0  0  0  0  0  0  0  0  0
   -2.3037   -0.4694   27.9056 N   0  0  0  0  0  0  0  0  0  0  0  0
   -2.2232   -1.2154   29.0280 C   0  0  0  0  0  0  0  0  0  0  0  0
    0.7734   -5.9113   31.0251 N   0  0  0  0  0  0  0  0  0  0  0  0
    3.7555   -7.0443   26.7380 H   0  0  0  0  0  0  0  0  0  0  0  0
    5.4216   -6.4899   26.6626 H   0  0  0  0  0  0  0  0  0  0  0  0
    4.7535   -6.8713   28.2367 H   0  0  0  0  0  0  0  0  0  0  0  0
    5.5136   -4.2835   26.0491 H   0  0  0  0  0  0  0  0  0  0  0  0
    4.8291   -1.9126   26.2979 H   0  0  0  0  0  0  0  0  0  0  0  0
    1.7915   -2.9979   29.0154 H   0  0  0  0  0  0  0  0  0  0  0  0
    1.6528   -4.8758   29.8565 H   0  0  0  0  0  0  0  0  0  0  0  0
   -0.1796   -8.8676   29.7394 H   0  0  0  0  0  0  0  0  0  0  0  0
   -2.1697   -8.6400   32.6248 H   0  0  0  0  0  0  0  0  0  0  0  0
   -1.0717   -4.2797   33.0576 H   0  0  0  0  0  0  0  0  0  0  0  0
    0.6110   -4.4988   33.5100 H   0  0  0  0  0  0  0  0  0  0  0  0
   -0.0136   -3.6536   30.6124 H   0  0  0  0  0  0  0  0  0  0  0  0
    1.4607   -3.4349   31.5584 H   0  0  0  0  0  0  0  0  0  0  0  0
    0.2336   -1.7458   32.9030 H   0  0  0  0  0  0  0  0  0  0  0  0
   -0.1023    0.6534   30.8850 H   0  0  0  0  0  0  0  0  0  0  0  0
   -0.2212    2.0191   28.8091 H   0  0  0  0  0  0  0  0  0  0  0  0
   -0.9985    1.8366   26.3414 H   0  0  0  0  0  0  0  0  0  0  0  0
   -2.4538    0.9702   26.1447 H   0  0  0  0  0  0  0  0  0  0  0  0
   -2.8444   -2.1050   29.0206 H   0  0  0  0  0  0  0  0  0  0  0  0
  1  2  1  0
  2  3  2  0
  3  4  1  0
  4  5  2  0
  5  6  1  0
  5  7  1  0
  7  8  2  0
  8  9  1  0
  9 10  1  0
 10 11  2  0
 10 12  1  0
 12 13  2  0
 13 14  1  0
 14 15  1  0
 14 16  2  0
 16 17  1  0
 17 18  1  0
 18 19  1  0
 19 20  1  0
 20 21  1  0
 21 22  2  0
 21 23  2  0
 21 24  1  0
 24 25  2  0
 25 26  1  0
 26 27  2  0
 27 28  1  0
 27 29  1  0
 29 30  2  0
 17 31  2  0
  8  2  1  0
 31 12  1  0
 30 24  1  0
  1 32  1  0
  1 33  1  0
  1 34  1  0
  3 35  1  0
  4 36  1  0
  7 37  1  0
  9 38  1  0
 13 39  1  0
 15 40  1  0
 18 41  1  0
 18 42  1  0
 19 43  1  0
 19 44  1  0
 20 45  1  0
 25 46  1  0
 26 47  1  0
 28 48  1  0
 28 49  1  0
 30 50  1  0
M  END
>  <Energy>  (115) 
-96.556295580727948

>  <compound_id>  (115) 
204

>  <target_id>  (115) 
1

>  <reference_id>  (115) 
199

>  <inspiration_ids>  (115) 
[199, 40]

>  <energy_score>  (115) 
-55.106903167250806

>  <distance_score>  (115) 
2.032663704438104

>  <path>  (115) 
/opt/xchem-fragalysis-2/maxwin/BulkDock/SCRATCH/505737/C204-P199/C204-P199.minimised.mol

>  <scratch_subdir>  (115) 
/opt/xchem-fragalysis-2/maxwin/BulkDock/SCRATCH/505737/C204-P199

>  <fragmenstein_runtime>  (115) 
11.840004682540894

>  <fragmenstein_outcome>  (115) 
too moved

>  <fragmenstein_mode>  (115) 
expansion

>  <fragmenstein_error>  (115) 


$$$$
C204-P40
     RDKit          3D

 50 52  0  0  0  0  0  0  0  0999 V2000
    4.8754   -6.8018   28.2799 C   0  0  0  0  0  0  0  0  0  0  0  0
    3.9761   -5.6368   28.0196 C   0  0  0  0  0  0  0  0  0  0  0  0
    4.5786   -4.3947   27.7287 C   0  0  0  0  0  0  0  0  0  0  0  0
    3.8031   -3.2482   27.6280 C   0  0  0  0  0  0  0  0  0  0  0  0
    2.4328   -3.3829   27.7140 C   0  0  0  0  0  0  0  0  0  0  0  0
    1.6430   -2.3238   27.8793 F   0  0  0  0  0  0  0  0  0  0  0  0
    1.8249   -4.6114   27.7712 C   0  0  0  0  0  0  0  0  0  0  0  0
    2.5758   -5.7424   28.0640 C   0  0  0  0  0  0  0  0  0  0  0  0
    1.8904   -6.2716   29.1360 N   0  0  0  0  0  0  0  0  0  0  0  0
    0.8987   -7.4427   29.2073 C   0  0  0  0  0  0  0  0  0  0  0  0
    0.5617   -8.1957   28.3889 O   0  0  0  0  0  0  0  0  0  0  0  0
    0.3253   -7.3858   30.5749 C   0  0  0  0  0  0  0  0  0  0  0  0
   -0.6135   -8.2322   31.0277 C   0  0  0  0  0  0  0  0  0  0  0  0
   -1.1779   -7.8182   32.1830 C   0  0  0  0  0  0  0  0  0  0  0  0
   -2.1344   -8.6112   32.7054 O   0  0  0  0  0  0  0  0  0  0  0  0
   -0.9232   -6.6715   32.8237 N   0  0  0  0  0  0  0  0  0  0  0  0
    0.0177   -5.9074   32.2704 C   0  0  0  0  0  0  0  0  0  0  0  0
    0.2319   -4.4841   32.6469 C   0  0  0  0  0  0  0  0  0  0  0  0
    0.5998   -3.6521   31.4023 C   0  0  0  0  0  0  0  0  0  0  0  0
    0.3413   -2.2424   31.6537 N   0  0  0  0  0  0  0  0  0  0  0  0
   -1.2415   -1.7200   31.4707 S   0  0  0  0  0  0  0  0  0  0  0  0
   -2.1002   -2.8773   31.3127 O   0  0  0  0  0  0  0  0  0  0  0  0
   -1.4485   -0.7620   32.5329 O   0  0  0  0  0  0  0  0  0  0  0  0
   -1.1508   -0.8422   29.9652 C   0  0  0  0  0  0  0  0  0  0  0  0
   -0.6145    0.4380   29.9157 C   0  0  0  0  0  0  0  0  0  0  0  0
   -0.7691    1.1786   28.7467 C   0  0  0  0  0  0  0  0  0  0  0  0
   -1.4674    0.6177   27.6905 C   0  0  0  0  0  0  0  0  0  0  0  0
   -1.8107    1.3699   26.5784 N   0  0  0  0  0  0  0  0  0  0  0  0
   -1.9359   -0.6365   27.7173 N   0  0  0  0  0  0  0  0  0  0  0  0
   -1.7467   -1.3574   28.8398 C   0  0  0  0  0  0  0  0  0  0  0  0
    0.7260   -6.2812   31.2267 N   0  0  0  0  0  0  0  0  0  0  0  0
    4.7681   -7.1417   29.3080 H   0  0  0  0  0  0  0  0  0  0  0  0
    5.9301   -6.5461   28.1309 H   0  0  0  0  0  0  0  0  0  0  0  0
    4.6392   -7.5968   27.5743 H   0  0  0  0  0  0  0  0  0  0  0  0
    5.6621   -4.3045   27.6692 H   0  0  0  0  0  0  0  0  0  0  0  0
    4.2535   -2.2661   27.5308 H   0  0  0  0  0  0  0  0  0  0  0  0
    0.7468   -4.5861   27.9241 H   0  0  0  0  0  0  0  0  0  0  0  0
    1.8857   -5.7670   30.0224 H   0  0  0  0  0  0  0  0  0  0  0  0
   -0.8381   -9.1607   30.5380 H   0  0  0  0  0  0  0  0  0  0  0  0
   -2.0257   -8.5023   33.6714 H   0  0  0  0  0  0  0  0  0  0  0  0
   -0.6739   -4.1069   33.1337 H   0  0  0  0  0  0  0  0  0  0  0  0
    1.0375   -4.4207   33.3875 H   0  0  0  0  0  0  0  0  0  0  0  0
    0.0641   -3.9641   30.4975 H   0  0  0  0  0  0  0  0  0  0  0  0
    1.6694   -3.7620   31.1865 H   0  0  0  0  0  0  0  0  0  0  0  0
    0.7915   -1.8130   32.4635 H   0  0  0  0  0  0  0  0  0  0  0  0
   -0.1345    0.8830   30.7817 H   0  0  0  0  0  0  0  0  0  0  0  0
   -0.4181    2.2037   28.6883 H   0  0  0  0  0  0  0  0  0  0  0  0
   -1.0194    1.8546   26.1822 H   0  0  0  0  0  0  0  0  0  0  0  0
   -2.2557    0.7137   25.9379 H   0  0  0  0  0  0  0  0  0  0  0  0
   -2.1467   -2.3629   28.8038 H   0  0  0  0  0  0  0  0  0  0  0  0
  1  2  1  0
  2  3  2  0
  3  4  1  0
  4  5  2  0
  5  6  1  0
  5  7  1  0
  7  8  2  0
  8  9  1  0
  9 10  1  0
 10 11  2  0
 10 12  1  0
 12 13  2  0
 13 14  1  0
 14 15  1  0
 14 16  2  0
 16 17  1  0
 17 18  1  0
 18 19  1  0
 19 20  1  0
 20 21  1  0
 21 22  2  0
 21 23  2  0
 21 24  1  0
 24 25  2  0
 25 26  1  0
 26 27  2  0
 27 28  1  0
 27 29  1  0
 29 30  2  0
 17 31  2  0
  8  2  1  0
 31 12  1  0
 30 24  1  0
  1 32  1  0
  1 33  1  0
  1 34  1  0
  3 35  1  0
  4 36  1  0
  7 37  1  0
  9 38  1  0
 13 39  1  0
 15 40  1  0
 18 41  1  0
 18 42  1  0
 19 43  1  0
 19 44  1  0
 20 45  1  0
 25 46  1  0
 26 47  1  0
 28 48  1  0
 28 49  1  0
 30 50  1  0
M  END
>  <Energy>  (116) 
-59.192497677380125

>  <compound_id>  (116) 
204

>  <target_id>  (116) 
1

>  <reference_id>  (116) 
40

>  <inspiration_ids>  (116) 
[199, 40]

>  <energy_score>  (116) 
-17.74310526390218

>  <distance_score>  (116) 
1.621508637456194

>  <path>  (116) 
/opt/xchem-fragalysis-2/maxwin/BulkDock/SCRATCH/505737/C204-P40/C204-P40.minimised.mol

>  <scratch_subdir>  (116) 
/opt/xchem-fragalysis-2/maxwin/BulkDock/SCRATCH/505737/C204-P40

>  <fragmenstein_runtime>  (116) 
11.988381385803223

>  <fragmenstein_outcome>  (116) 
too moved

>  <fragmenstein_mode>  (116) 
expansion

>  <fragmenstein_error>  (116) 


$$$$
C208-P199
     RDKit          3D

 37 39  0  0  0  0  0  0  0  0999 V2000
   -2.0254    1.6552   26.6819 N   0  0  0  0  0  0  0  0  0  0  0  0
   -1.7401    0.8118   27.7516 C   0  0  0  0  0  0  0  0  0  0  0  0
   -0.8288    1.1771   28.7309 C   0  0  0  0  0  0  0  0  0  0  0  0
   -0.6288    0.3249   29.8157 C   0  0  0  0  0  0  0  0  0  0  0  0
   -1.3319   -0.8747   29.8596 C   0  0  0  0  0  0  0  0  0  0  0  0
   -1.1577   -1.9726   31.2116 S   0  0  0  0  0  0  0  0  0  0  0  0
   -2.1021   -3.0634   31.0955 O   0  0  0  0  0  0  0  0  0  0  0  0
   -1.0925   -1.1707   32.4137 O   0  0  0  0  0  0  0  0  0  0  0  0
    0.3853   -2.5763   30.9479 N   0  0  0  0  0  0  0  0  0  0  0  0
    0.5835   -3.5194   29.8274 C   0  0  0  0  0  0  0  0  0  0  0  0
    1.4005   -4.7129   30.3079 C   0  0  0  0  0  0  0  0  0  0  0  0
    0.6456   -5.4492   31.3573 C   0  0  0  0  0  0  0  0  0  0  0  0
    0.3326   -4.9984   32.5634 N   0  0  0  0  0  0  0  0  0  0  0  0
   -0.3632   -6.0118   33.1323 C   0  0  0  0  0  0  0  0  0  0  0  0
   -0.9429   -6.0497   34.3204 O   0  0  0  0  0  0  0  0  0  0  0  0
   -0.4924   -7.0652   32.3036 C   0  0  0  0  0  0  0  0  0  0  0  0
   -1.1127   -8.3033   32.4043 C   0  0  0  0  0  0  0  0  0  0  0  0
   -0.9824   -9.1214   31.3702 C   0  0  0  0  0  0  0  0  0  0  0  0
   -0.2777   -8.6322   30.1830 C   0  0  0  0  0  0  0  0  0  0  0  0
    0.2231   -7.4525   30.0251 N   0  0  0  0  0  0  0  0  0  0  0  0
    0.1262   -6.6992   31.1483 N   0  0  0  0  0  0  0  0  0  0  0  0
   -2.1865   -1.1841   28.8265 C   0  0  0  0  0  0  0  0  0  0  0  0
   -2.4021   -0.3529   27.7815 N   0  0  0  0  0  0  0  0  0  0  0  0
   -2.7589    1.1810   26.1539 H   0  0  0  0  0  0  0  0  0  0  0  0
   -2.3623    2.5556   27.0116 H   0  0  0  0  0  0  0  0  0  0  0  0
   -0.2973    2.1204   28.6619 H   0  0  0  0  0  0  0  0  0  0  0  0
    0.0640    0.5970   30.6073 H   0  0  0  0  0  0  0  0  0  0  0  0
    0.7771   -2.8686   31.8516 H   0  0  0  0  0  0  0  0  0  0  0  0
    1.1260   -2.9923   29.0351 H   0  0  0  0  0  0  0  0  0  0  0  0
   -0.3679   -3.8562   29.4022 H   0  0  0  0  0  0  0  0  0  0  0  0
    1.6514   -5.3550   29.4582 H   0  0  0  0  0  0  0  0  0  0  0  0
    2.3515   -4.3710   30.7345 H   0  0  0  0  0  0  0  0  0  0  0  0
   -1.1957   -5.1352   34.5588 H   0  0  0  0  0  0  0  0  0  0  0  0
   -1.6312   -8.5740   33.3150 H   0  0  0  0  0  0  0  0  0  0  0  0
   -1.3369  -10.1261   31.3286 H   0  0  0  0  0  0  0  0  0  0  0  0
   -0.1968   -9.3591   29.3589 H   0  0  0  0  0  0  0  0  0  0  0  0
   -2.7556   -2.1069   28.7946 H   0  0  0  0  0  0  0  0  0  0  0  0
  1  2  1  0
  2  3  2  0
  3  4  1  0
  4  5  2  0
  5  6  1  0
  6  7  2  0
  6  8  2  0
  6  9  1  0
  9 10  1  0
 10 11  1  0
 11 12  1  0
 12 13  2  0
 13 14  1  0
 14 15  1  0
 14 16  2  0
 16 17  1  0
 17 18  2  0
 18 19  1  0
 19 20  2  0
 20 21  1  0
  5 22  1  0
 22 23  2  0
 23  2  1  0
 21 12  1  0
 21 16  1  0
  1 24  1  0
  1 25  1  0
  3 26  1  0
  4 27  1  0
  9 28  1  0
 10 29  1  0
 10 30  1  0
 11 31  1  0
 11 32  1  0
 15 33  1  0
 17 34  1  0
 18 35  1  0
 19 36  1  0
 22 37  1  0
M  END
>  <Energy>  (117) 
-110.52735059311973

>  <compound_id>  (117) 
208

>  <target_id>  (117) 
1

>  <reference_id>  (117) 
199

>  <inspiration_ids>  (117) 
[199, 56]

>  <energy_score>  (117) 
-57.143882502576474

>  <distance_score>  (117) 
1.6320600502154767

>  <path>  (117) 
/opt/xchem-fragalysis-2/maxwin/BulkDock/SCRATCH/505737/C208-P199/C208-P199.minimised.mol

>  <scratch_subdir>  (117) 
/opt/xchem-fragalysis-2/maxwin/BulkDock/SCRATCH/505737/C208-P199

>  <fragmenstein_runtime>  (117) 
2.555845260620117

>  <fragmenstein_outcome>  (117) 
too moved

>  <fragmenstein_mode>  (117) 
expansion

>  <fragmenstein_error>  (117) 


$$$$
C208-P56
     RDKit          3D

 37 39  0  0  0  0  0  0  0  0999 V2000
   -1.8839    1.8135   26.8761 N   0  0  0  0  0  0  0  0  0  0  0  0
   -1.5504    0.8703   27.8521 C   0  0  0  0  0  0  0  0  0  0  0  0
   -0.8689    1.2536   29.0041 C   0  0  0  0  0  0  0  0  0  0  0  0
   -0.6402    0.3154   30.0142 C   0  0  0  0  0  0  0  0  0  0  0  0
   -1.1058   -0.9815   29.8384 C   0  0  0  0  0  0  0  0  0  0  0  0
   -0.9840   -2.2003   31.1034 S   0  0  0  0  0  0  0  0  0  0  0  0
   -2.1919   -2.9995   31.0897 O   0  0  0  0  0  0  0  0  0  0  0  0
   -0.5660   -1.5130   32.3078 O   0  0  0  0  0  0  0  0  0  0  0  0
    0.3209   -3.1426   30.5984 N   0  0  0  0  0  0  0  0  0  0  0  0
    0.0784   -4.2025   29.5886 C   0  0  0  0  0  0  0  0  0  0  0  0
    0.4042   -5.6225   30.0908 C   0  0  0  0  0  0  0  0  0  0  0  0
   -0.0472   -5.8974   31.4785 C   0  0  0  0  0  0  0  0  0  0  0  0
    0.2029   -5.0586   32.4684 N   0  0  0  0  0  0  0  0  0  0  0  0
   -0.2547   -5.6910   33.5602 C   0  0  0  0  0  0  0  0  0  0  0  0
   -0.2821   -5.1983   34.7802 O   0  0  0  0  0  0  0  0  0  0  0  0
   -0.7507   -6.9176   33.3045 C   0  0  0  0  0  0  0  0  0  0  0  0
   -1.3049   -7.9177   34.1074 C   0  0  0  0  0  0  0  0  0  0  0  0
   -1.7750   -9.0039   33.5086 C   0  0  0  0  0  0  0  0  0  0  0  0
   -1.6932   -9.0211   32.0348 C   0  0  0  0  0  0  0  0  0  0  0  0
   -1.2064   -8.1072   31.2425 N   0  0  0  0  0  0  0  0  0  0  0  0
   -0.6842   -7.0450   31.9416 N   0  0  0  0  0  0  0  0  0  0  0  0
   -1.7838   -1.2768   28.6759 C   0  0  0  0  0  0  0  0  0  0  0  0
   -2.0219   -0.3736   27.6931 N   0  0  0  0  0  0  0  0  0  0  0  0
   -2.6206    2.4195   27.2376 H   0  0  0  0  0  0  0  0  0  0  0  0
   -1.0834    2.4011   26.6673 H   0  0  0  0  0  0  0  0  0  0  0  0
   -0.5170    2.2732   29.1233 H   0  0  0  0  0  0  0  0  0  0  0  0
   -0.1151    0.6040   30.9206 H   0  0  0  0  0  0  0  0  0  0  0  0
    0.8071   -3.4842   31.4416 H   0  0  0  0  0  0  0  0  0  0  0  0
    0.7106   -3.9810   28.7203 H   0  0  0  0  0  0  0  0  0  0  0  0
   -0.9448   -4.1612   29.2168 H   0  0  0  0  0  0  0  0  0  0  0  0
    0.0057   -6.3597   29.3864 H   0  0  0  0  0  0  0  0  0  0  0  0
    1.4946   -5.7229   30.1039 H   0  0  0  0  0  0  0  0  0  0  0  0
   -0.0670   -4.2543   34.7048 H   0  0  0  0  0  0  0  0  0  0  0  0
   -1.3365   -7.8001   35.1880 H   0  0  0  0  0  0  0  0  0  0  0  0
   -2.1837   -9.8301   34.0656 H   0  0  0  0  0  0  0  0  0  0  0  0
   -2.0867   -9.9456   31.5844 H   0  0  0  0  0  0  0  0  0  0  0  0
   -2.2014   -2.2582   28.4915 H   0  0  0  0  0  0  0  0  0  0  0  0
  1  2  1  0
  2  3  2  0
  3  4  1  0
  4  5  2  0
  5  6  1  0
  6  7  2  0
  6  8  2  0
  6  9  1  0
  9 10  1  0
 10 11  1  0
 11 12  1  0
 12 13  2  0
 13 14  1  0
 14 15  1  0
 14 16  2  0
 16 17  1  0
 17 18  2  0
 18 19  1  0
 19 20  2  0
 20 21  1  0
  5 22  1  0
 22 23  2  0
 23  2  1  0
 21 12  1  0
 21 16  1  0
  1 24  1  0
  1 25  1  0
  3 26  1  0
  4 27  1  0
  9 28  1  0
 10 29  1  0
 10 30  1  0
 11 31  1  0
 11 32  1  0
 15 33  1  0
 17 34  1  0
 18 35  1  0
 19 36  1  0
 22 37  1  0
M  END
>  <Energy>  (118) 
-97.667739281160749

>  <compound_id>  (118) 
208

>  <target_id>  (118) 
1

>  <reference_id>  (118) 
56

>  <inspiration_ids>  (118) 
[199, 56]

>  <energy_score>  (118) 
-44.284271190616835

>  <distance_score>  (118) 
1.5964587493447326

>  <path>  (118) 
/opt/xchem-fragalysis-2/maxwin/BulkDock/SCRATCH/505737/C208-P56/C208-P56.minimised.mol

>  <scratch_subdir>  (118) 
/opt/xchem-fragalysis-2/maxwin/BulkDock/SCRATCH/505737/C208-P56

>  <fragmenstein_runtime>  (118) 
2.056398868560791

>  <fragmenstein_outcome>  (118) 
too moved

>  <fragmenstein_mode>  (118) 
expansion

>  <fragmenstein_error>  (118) 


$$$$
C213-P199
     RDKit          3D

 58 62  0  0  0  0  0  0  0  0999 V2000
   -0.6521   -6.0339   36.1715 C   0  0  0  0  0  0  0  0  0  0  0  0
   -0.6863   -7.4699   35.1401 S   0  0  0  0  0  0  0  0  0  0  0  0
    0.5863   -8.1332   35.3213 O   0  0  0  0  0  0  0  0  0  0  0  0
   -1.9892   -8.0605   35.3578 O   0  0  0  0  0  0  0  0  0  0  0  0
   -0.7485   -6.9980   33.5460 N   0  0  0  0  0  0  0  0  0  0  0  0
   -0.0642   -5.8346   32.9922 C   0  0  0  0  0  0  0  0  0  0  0  0
   -0.1709   -5.8887   31.4723 C   0  0  0  0  0  0  0  0  0  0  0  0
    0.8722   -5.0236   30.7548 C   0  0  0  0  0  0  0  0  0  0  0  0
    1.5068   -3.8928   31.5870 C   0  0  0  0  0  0  0  0  0  0  0  0
    0.7093   -2.6906   31.5213 O   0  0  0  0  0  0  0  0  0  0  0  0
   -0.4048   -2.6926   32.4299 N   0  0  0  0  0  0  0  0  0  0  0  0
   -1.8122   -2.1335   31.6255 S   0  0  0  0  0  0  0  0  0  0  0  0
   -2.4912   -3.3439   31.2200 O   0  0  0  0  0  0  0  0  0  0  0  0
   -2.4843   -1.1811   32.4865 O   0  0  0  0  0  0  0  0  0  0  0  0
   -1.3891   -1.2044   30.2012 C   0  0  0  0  0  0  0  0  0  0  0  0
   -0.6075   -0.0563   30.2797 C   0  0  0  0  0  0  0  0  0  0  0  0
   -0.5998    0.8201   29.1928 C   0  0  0  0  0  0  0  0  0  0  0  0
   -1.3915    0.5322   28.0895 C   0  0  0  0  0  0  0  0  0  0  0  0
   -1.5485    1.4437   27.0556 N   0  0  0  0  0  0  0  0  0  0  0  0
   -2.1221   -0.5845   27.9986 N   0  0  0  0  0  0  0  0  0  0  0  0
   -2.1048   -1.4389   29.0443 C   0  0  0  0  0  0  0  0  0  0  0  0
   -0.2201   -2.0159   33.7356 C   0  0  0  0  0  0  0  0  0  0  0  0
    0.5119   -2.9374   34.6773 C   0  0  0  0  0  0  0  0  0  0  0  0
    1.8855   -3.2064   34.1238 C   0  0  0  0  0  0  0  0  0  0  0  0
    2.8708   -3.2328   35.2848 N   0  0  0  0  0  0  0  0  0  0  0  0
    4.1238   -3.1103   34.7562 N   0  0  0  0  0  0  0  0  0  0  0  0
    4.2244   -4.3291   34.3144 C   0  0  0  0  0  0  0  0  0  0  0  0
    3.6679   -4.4973   32.9169 C   0  0  0  0  0  0  0  0  0  0  0  0
    2.0638   -4.3364   33.0022 C   0  0  0  0  0  0  0  0  0  0  0  0
    1.4061   -5.7167   33.3803 C   0  0  0  0  0  0  0  0  0  0  0  0
    3.9032   -5.2714   35.2675 N   0  0  0  0  0  0  0  0  0  0  0  0
    2.8781   -4.5489   35.9657 N   0  0  0  0  0  0  0  0  0  0  0  0
   -1.4474   -5.3483   35.9006 H   0  0  0  0  0  0  0  0  0  0  0  0
   -0.8135   -6.3695   37.1993 H   0  0  0  0  0  0  0  0  0  0  0  0
    0.3230   -5.5608   36.1328 H   0  0  0  0  0  0  0  0  0  0  0  0
   -1.6946   -7.1517   33.1967 H   0  0  0  0  0  0  0  0  0  0  0  0
   -0.6377   -4.9761   33.3313 H   0  0  0  0  0  0  0  0  0  0  0  0
   -1.1618   -5.5445   31.1879 H   0  0  0  0  0  0  0  0  0  0  0  0
   -0.0935   -6.9187   31.1002 H   0  0  0  0  0  0  0  0  0  0  0  0
    0.4213   -4.6117   29.8435 H   0  0  0  0  0  0  0  0  0  0  0  0
    1.6794   -5.6882   30.4235 H   0  0  0  0  0  0  0  0  0  0  0  0
    2.3813   -3.5928   30.9963 H   0  0  0  0  0  0  0  0  0  0  0  0
   -0.0703    0.2005   31.1873 H   0  0  0  0  0  0  0  0  0  0  0  0
   -0.0434    1.7507   29.2385 H   0  0  0  0  0  0  0  0  0  0  0  0
   -2.1508    0.9835   26.3745 H   0  0  0  0  0  0  0  0  0  0  0  0
   -0.6628    1.7414   26.6730 H   0  0  0  0  0  0  0  0  0  0  0  0
   -2.7715   -2.2867   28.9328 H   0  0  0  0  0  0  0  0  0  0  0  0
    0.3009   -1.0620   33.5963 H   0  0  0  0  0  0  0  0  0  0  0  0
   -1.1763   -1.8087   34.2253 H   0  0  0  0  0  0  0  0  0  0  0  0
   -0.0526   -3.8384   34.8817 H   0  0  0  0  0  0  0  0  0  0  0  0
    0.5802   -2.4117   35.6399 H   0  0  0  0  0  0  0  0  0  0  0  0
    2.1874   -2.2763   33.6125 H   0  0  0  0  0  0  0  0  0  0  0  0
    4.1165   -3.7352   32.2707 H   0  0  0  0  0  0  0  0  0  0  0  0
    3.9894   -5.4618   32.6111 H   0  0  0  0  0  0  0  0  0  0  0  0
    1.5206   -5.9007   34.4410 H   0  0  0  0  0  0  0  0  0  0  0  0
    1.9536   -6.5303   32.8959 H   0  0  0  0  0  0  0  0  0  0  0  0
    3.5946   -6.1791   34.9303 H   0  0  0  0  0  0  0  0  0  0  0  0
    3.2188   -4.3745   36.9204 H   0  0  0  0  0  0  0  0  0  0  0  0
  1  2  1  0
  2  3  2  0
  2  4  2  0
  2  5  1  0
  5  6  1  0
  6  7  1  0
  7  8  1  0
  8  9  1  0
  9 10  1  0
 10 11  1  0
 11 12  1  0
 12 13  2  0
 12 14  2  0
 12 15  1  0
 15 16  2  0
 16 17  1  0
 17 18  2  0
 18 19  1  0
 18 20  1  0
 20 21  2  0
 11 22  1  0
 22 23  1  0
 23 24  1  0
 24 25  1  0
 25 26  1  0
 26 27  2  0
 27 28  1  0
 28 29  1  0
 29 30  1  0
 27 31  1  0
 31 32  1  0
 30  6  1  0
 29  9  1  0
 21 15  1  0
 29 24  1  0
 32 25  1  0
  1 33  1  0
  1 34  1  0
  1 35  1  0
  5 36  1  0
  6 37  1  0
  7 38  1  0
  7 39  1  0
  8 40  1  0
  8 41  1  0
  9 42  1  0
 16 43  1  0
 17 44  1  0
 19 45  1  0
 19 46  1  0
 21 47  1  0
 22 48  1  0
 22 49  1  0
 23 50  1  0
 23 51  1  0
 24 52  1  0
 28 53  1  0
 28 54  1  0
 30 55  1  0
 30 56  1  0
 31 57  1  0
 32 58  1  0
M  END
>  <Energy>  (119) 
52.686219976083095

>  <compound_id>  (119) 
213

>  <target_id>  (119) 
1

>  <reference_id>  (119) 
199

>  <inspiration_ids>  (119) 
[199, 78]

>  <energy_score>  (119) 
-233.33194863246413

>  <distance_score>  (119) 
2.0928044268655075

>  <path>  (119) 
/opt/xchem-fragalysis-2/maxwin/BulkDock/SCRATCH/505737/C213-P199/C213-P199.minimised.mol

>  <scratch_subdir>  (119) 
/opt/xchem-fragalysis-2/maxwin/BulkDock/SCRATCH/505737/C213-P199

>  <fragmenstein_runtime>  (119) 
6.2279579639434814

>  <fragmenstein_outcome>  (119) 
too moved

>  <fragmenstein_mode>  (119) 
expansion

>  <fragmenstein_error>  (119) 


$$$$
C213-P78
     RDKit          3D

 58 62  0  0  0  0  0  0  0  0999 V2000
   -0.9197   -6.3980   36.0344 C   0  0  0  0  0  0  0  0  0  0  0  0
    0.3550   -7.5118   35.5243 S   0  0  0  0  0  0  0  0  0  0  0  0
    1.6181   -6.8180   35.5824 O   0  0  0  0  0  0  0  0  0  0  0  0
    0.1631   -8.7460   36.2444 O   0  0  0  0  0  0  0  0  0  0  0  0
   -0.0576   -7.8060   33.9073 N   0  0  0  0  0  0  0  0  0  0  0  0
   -0.0142   -6.7129   32.9297 C   0  0  0  0  0  0  0  0  0  0  0  0
   -0.7080   -7.1152   31.6262 C   0  0  0  0  0  0  0  0  0  0  0  0
   -0.1980   -6.2355   30.4633 C   0  0  0  0  0  0  0  0  0  0  0  0
    0.2638   -4.8207   30.9040 C   0  0  0  0  0  0  0  0  0  0  0  0
   -0.8304   -4.2651   31.6273 O   0  0  0  0  0  0  0  0  0  0  0  0
   -0.5115   -2.9505   32.1313 N   0  0  0  0  0  0  0  0  0  0  0  0
   -1.8339   -1.9434   31.7101 S   0  0  0  0  0  0  0  0  0  0  0  0
   -2.9676   -2.8046   31.4334 O   0  0  0  0  0  0  0  0  0  0  0  0
   -1.9412   -0.8883   32.6980 O   0  0  0  0  0  0  0  0  0  0  0  0
   -1.3159   -1.1717   30.2238 C   0  0  0  0  0  0  0  0  0  0  0  0
   -0.8116    0.1255   30.2236 C   0  0  0  0  0  0  0  0  0  0  0  0
   -0.7812    0.8322   29.0224 C   0  0  0  0  0  0  0  0  0  0  0  0
   -1.2670    0.2195   27.8819 C   0  0  0  0  0  0  0  0  0  0  0  0
   -1.4710    0.9266   26.7077 N   0  0  0  0  0  0  0  0  0  0  0  0
   -1.6621   -1.0590   27.8632 N   0  0  0  0  0  0  0  0  0  0  0  0
   -1.6732   -1.7380   29.0261 C   0  0  0  0  0  0  0  0  0  0  0  0
   -0.2628   -2.9284   33.6048 C   0  0  0  0  0  0  0  0  0  0  0  0
    1.0306   -3.6396   33.9511 C   0  0  0  0  0  0  0  0  0  0  0  0
    1.9291   -3.7868   32.7365 C   0  0  0  0  0  0  0  0  0  0  0  0
    3.3786   -3.9039   33.2432 N   0  0  0  0  0  0  0  0  0  0  0  0
    4.0131   -4.9665   32.6644 N   0  0  0  0  0  0  0  0  0  0  0  0
    3.9878   -4.5555   31.4260 C   0  0  0  0  0  0  0  0  0  0  0  0
    2.7703   -5.0539   30.6757 C   0  0  0  0  0  0  0  0  0  0  0  0
    1.5627   -4.9853   31.7356 C   0  0  0  0  0  0  0  0  0  0  0  0
    1.4306   -6.3171   32.5650 C   0  0  0  0  0  0  0  0  0  0  0  0
    4.3761   -3.2376   31.2764 N   0  0  0  0  0  0  0  0  0  0  0  0
    4.0883   -2.7433   32.6109 N   0  0  0  0  0  0  0  0  0  0  0  0
   -0.7391   -5.4011   35.6409 H   0  0  0  0  0  0  0  0  0  0  0  0
   -1.8654   -6.7830   35.6595 H   0  0  0  0  0  0  0  0  0  0  0  0
   -0.9221   -6.3613   37.1253 H   0  0  0  0  0  0  0  0  0  0  0  0
   -0.7942   -8.5207   33.8539 H   0  0  0  0  0  0  0  0  0  0  0  0
   -0.5663   -5.8767   33.3611 H   0  0  0  0  0  0  0  0  0  0  0  0
   -1.7892   -7.0148   31.7429 H   0  0  0  0  0  0  0  0  0  0  0  0
   -0.5289   -8.1690   31.3801 H   0  0  0  0  0  0  0  0  0  0  0  0
   -0.9796   -6.1745   29.7143 H   0  0  0  0  0  0  0  0  0  0  0  0
    0.6394   -6.7511   29.9806 H   0  0  0  0  0  0  0  0  0  0  0  0
    0.4273   -4.1986   30.0164 H   0  0  0  0  0  0  0  0  0  0  0  0
   -0.5288    0.6217   31.1477 H   0  0  0  0  0  0  0  0  0  0  0  0
   -0.4664    1.8703   28.9937 H   0  0  0  0  0  0  0  0  0  0  0  0
   -1.7668    0.2113   26.0383 H   0  0  0  0  0  0  0  0  0  0  0  0
   -0.6430    1.4291   26.4224 H   0  0  0  0  0  0  0  0  0  0  0  0
   -2.0616   -2.7461   28.9610 H   0  0  0  0  0  0  0  0  0  0  0  0
   -0.1545   -1.8899   33.9372 H   0  0  0  0  0  0  0  0  0  0  0  0
   -1.1042   -3.3751   34.1436 H   0  0  0  0  0  0  0  0  0  0  0  0
    0.8419   -4.5916   34.4379 H   0  0  0  0  0  0  0  0  0  0  0  0
    1.5298   -3.0384   34.7243 H   0  0  0  0  0  0  0  0  0  0  0  0
    1.8595   -2.8566   32.1512 H   0  0  0  0  0  0  0  0  0  0  0  0
    2.5976   -4.3813   29.8276 H   0  0  0  0  0  0  0  0  0  0  0  0
    2.9309   -6.0527   30.2814 H   0  0  0  0  0  0  0  0  0  0  0  0
    2.0804   -6.2926   33.4358 H   0  0  0  0  0  0  0  0  0  0  0  0
    1.8295   -7.1166   31.9559 H   0  0  0  0  0  0  0  0  0  0  0  0
    5.3746   -3.1611   31.0808 H   0  0  0  0  0  0  0  0  0  0  0  0
    4.9606   -2.6339   33.1420 H   0  0  0  0  0  0  0  0  0  0  0  0
  1  2  1  0
  2  3  2  0
  2  4  2  0
  2  5  1  0
  5  6  1  0
  6  7  1  0
  7  8  1  0
  8  9  1  0
  9 10  1  0
 10 11  1  0
 11 12  1  0
 12 13  2  0
 12 14  2  0
 12 15  1  0
 15 16  2  0
 16 17  1  0
 17 18  2  0
 18 19  1  0
 18 20  1  0
 20 21  2  0
 11 22  1  0
 22 23  1  0
 23 24  1  0
 24 25  1  0
 25 26  1  0
 26 27  2  0
 27 28  1  0
 28 29  1  0
 29 30  1  0
 27 31  1  0
 31 32  1  0
 30  6  1  0
 29  9  1  0
 21 15  1  0
 29 24  1  0
 32 25  1  0
  1 33  1  0
  1 34  1  0
  1 35  1  0
  5 36  1  0
  6 37  1  0
  7 38  1  0
  7 39  1  0
  8 40  1  0
  8 41  1  0
  9 42  1  0
 16 43  1  0
 17 44  1  0
 19 45  1  0
 19 46  1  0
 21 47  1  0
 22 48  1  0
 22 49  1  0
 23 50  1  0
 23 51  1  0
 24 52  1  0
 28 53  1  0
 28 54  1  0
 30 55  1  0
 30 56  1  0
 31 57  1  0
 32 58  1  0
M  END
>  <Energy>  (120) 
49.597089414378623

>  <compound_id>  (120) 
213

>  <target_id>  (120) 
1

>  <reference_id>  (120) 
78

>  <inspiration_ids>  (120) 
[199, 78]

>  <energy_score>  (120) 
-236.42107919417225

>  <distance_score>  (120) 
1.7969973312229746

>  <path>  (120) 
/opt/xchem-fragalysis-2/maxwin/BulkDock/SCRATCH/505737/C213-P78/C213-P78.minimised.mol

>  <scratch_subdir>  (120) 
/opt/xchem-fragalysis-2/maxwin/BulkDock/SCRATCH/505737/C213-P78

>  <fragmenstein_runtime>  (120) 
5.902590751647949

>  <fragmenstein_outcome>  (120) 
too moved

>  <fragmenstein_mode>  (120) 
expansion

>  <fragmenstein_error>  (120) 


$$$$
C215-P199
     RDKit          3D

 60 63  0  0  0  0  0  0  0  0999 V2000
   -1.2186   -9.0199   31.4849 C   0  0  0  0  0  0  0  0  0  0  0  0
   -0.4789   -8.4132   32.5116 O   0  0  0  0  0  0  0  0  0  0  0  0
   -0.7264   -7.0130   32.5577 C   0  0  0  0  0  0  0  0  0  0  0  0
   -0.0289   -6.3788   31.3616 C   0  0  0  0  0  0  0  0  0  0  0  0
    1.4043   -6.1311   31.7915 C   0  0  0  0  0  0  0  0  0  0  0  0
    1.4945   -4.9258   32.7081 C   0  0  0  0  0  0  0  0  0  0  0  0
    2.6663   -5.0410   33.6681 C   0  0  0  0  0  0  0  0  0  0  0  0
    3.2686   -3.9089   34.0453 C   0  0  0  0  0  0  0  0  0  0  0  0
    4.2767   -3.7590   34.9688 N   0  0  0  0  0  0  0  0  0  0  0  0
    4.4828   -2.3092   35.0015 C   0  0  0  0  0  0  0  0  0  0  0  0
    3.7220   -1.6510   33.9186 N   0  0  0  0  0  0  0  0  0  0  0  0
    2.8697   -2.6947   33.4874 N   0  0  0  0  0  0  0  0  0  0  0  0
    2.3915   -2.6082   32.2299 N   0  0  0  0  0  0  0  0  0  0  0  0
    1.8043   -3.6915   31.7937 C   0  0  0  0  0  0  0  0  0  0  0  0
    1.6225   -3.7550   30.2667 C   0  0  0  0  0  0  0  0  0  0  0  0
    0.6609   -2.7132   29.7911 C   0  0  0  0  0  0  0  0  0  0  0  0
   -0.6840   -3.1200   30.2241 N   0  0  0  0  0  0  0  0  0  0  0  0
   -1.5710   -1.9373   31.0239 S   0  0  0  0  0  0  0  0  0  0  0  0
   -0.7918   -1.4692   32.1381 O   0  0  0  0  0  0  0  0  0  0  0  0
   -2.8945   -2.4649   31.2337 O   0  0  0  0  0  0  0  0  0  0  0  0
   -1.6204   -0.7144   29.7745 C   0  0  0  0  0  0  0  0  0  0  0  0
   -0.8498    0.4393   29.8237 C   0  0  0  0  0  0  0  0  0  0  0  0
   -0.9014    1.3150   28.7383 C   0  0  0  0  0  0  0  0  0  0  0  0
   -1.7400    1.0186   27.6733 C   0  0  0  0  0  0  0  0  0  0  0  0
   -1.9057    1.8984   26.6105 N   0  0  0  0  0  0  0  0  0  0  0  0
   -2.4418   -0.1175   27.6059 N   0  0  0  0  0  0  0  0  0  0  0  0
   -2.3685   -0.9707   28.6469 C   0  0  0  0  0  0  0  0  0  0  0  0
    0.2264   -4.9336   33.6121 C   0  0  0  0  0  0  0  0  0  0  0  0
   -0.1829   -6.4207   33.8781 C   0  0  0  0  0  0  0  0  0  0  0  0
   -1.1433   -6.5633   34.9218 O   0  0  0  0  0  0  0  0  0  0  0  0
   -0.5174   -6.5925   36.2014 C   0  0  0  0  0  0  0  0  0  0  0  0
   -1.0432  -10.0857   31.4470 H   0  0  0  0  0  0  0  0  0  0  0  0
   -0.9067   -8.6646   30.5031 H   0  0  0  0  0  0  0  0  0  0  0  0
   -2.2772   -8.8299   31.6588 H   0  0  0  0  0  0  0  0  0  0  0  0
   -1.7929   -6.8618   32.5163 H   0  0  0  0  0  0  0  0  0  0  0  0
   -0.0119   -6.9867   30.4578 H   0  0  0  0  0  0  0  0  0  0  0  0
   -0.5399   -5.4542   31.0931 H   0  0  0  0  0  0  0  0  0  0  0  0
    1.7573   -7.0015   32.3349 H   0  0  0  0  0  0  0  0  0  0  0  0
    2.0326   -6.0437   30.9124 H   0  0  0  0  0  0  0  0  0  0  0  0
    2.9480   -5.9858   34.1139 H   0  0  0  0  0  0  0  0  0  0  0  0
    4.0334   -4.1693   35.8628 H   0  0  0  0  0  0  0  0  0  0  0  0
    4.1554   -1.9185   35.9728 H   0  0  0  0  0  0  0  0  0  0  0  0
    5.5488   -2.0846   34.8918 H   0  0  0  0  0  0  0  0  0  0  0  0
    3.1316   -0.9233   34.3107 H   0  0  0  0  0  0  0  0  0  0  0  0
    2.6109   -3.5684   29.8272 H   0  0  0  0  0  0  0  0  0  0  0  0
    1.2871   -4.7041   29.8607 H   0  0  0  0  0  0  0  0  0  0  0  0
    0.9546   -1.7322   30.1738 H   0  0  0  0  0  0  0  0  0  0  0  0
    0.6718   -2.6537   28.6972 H   0  0  0  0  0  0  0  0  0  0  0  0
   -1.2370   -3.5594   29.4825 H   0  0  0  0  0  0  0  0  0  0  0  0
   -0.2081    0.6555   30.6739 H   0  0  0  0  0  0  0  0  0  0  0  0
   -0.3185    2.2304   28.7376 H   0  0  0  0  0  0  0  0  0  0  0  0
   -2.2224    2.8064   26.9399 H   0  0  0  0  0  0  0  0  0  0  0  0
   -2.6311    1.4824   26.0235 H   0  0  0  0  0  0  0  0  0  0  0  0
   -2.9623   -1.8715   28.5312 H   0  0  0  0  0  0  0  0  0  0  0  0
   -0.6009   -4.3913   33.1369 H   0  0  0  0  0  0  0  0  0  0  0  0
    0.3906   -4.4011   34.5568 H   0  0  0  0  0  0  0  0  0  0  0  0
    0.6923   -7.0093   34.1863 H   0  0  0  0  0  0  0  0  0  0  0  0
    0.2851   -5.8533   36.2845 H   0  0  0  0  0  0  0  0  0  0  0  0
   -0.1180   -7.5935   36.3899 H   0  0  0  0  0  0  0  0  0  0  0  0
   -1.2582   -6.3561   36.9625 H   0  0  0  0  0  0  0  0  0  0  0  0
  1  2  1  0
  2  3  1  0
  3  4  1  0
  4  5  1  0
  5  6  1  0
  6  7  1  0
  7  8  2  0
  8  9  1  0
  9 10  1  0
 10 11  1  0
 11 12  1  0
 12 13  1  0
 13 14  2  0
 14 15  1  0
 15 16  1  0
 16 17  1  0
 17 18  1  0
 18 19  2  0
 18 20  2  0
 18 21  1  0
 21 22  2  0
 22 23  1  0
 23 24  2  0
 24 25  1  0
 24 26  1  0
 26 27  2  0
  6 28  1  0
 28 29  1  0
 29 30  1  0
 30 31  1  0
 29  3  1  0
 14  6  1  0
 27 21  1  0
 12  8  1  0
  1 32  1  0
  1 33  1  0
  1 34  1  0
  3 35  1  0
  4 36  1  0
  4 37  1  0
  5 38  1  0
  5 39  1  0
  7 40  1  0
  9 41  1  0
 10 42  1  0
 10 43  1  0
 11 44  1  0
 15 45  1  0
 15 46  1  0
 16 47  1  0
 16 48  1  0
 17 49  1  0
 22 50  1  0
 23 51  1  0
 25 52  1  0
 25 53  1  0
 27 54  1  0
 28 55  1  0
 28 56  1  0
 29 57  1  0
 31 58  1  0
 31 59  1  0
 31 60  1  0
M  END
>  <Energy>  (121) 
-41.924358857930095

>  <compound_id>  (121) 
215

>  <target_id>  (121) 
1

>  <reference_id>  (121) 
199

>  <inspiration_ids>  (121) 
[199, 128]

>  <energy_score>  (121) 
-71.2739178173517

>  <distance_score>  (121) 
1.7643169420537135

>  <path>  (121) 
/opt/xchem-fragalysis-2/maxwin/BulkDock/SCRATCH/505737/C215-P199/C215-P199.minimised.mol

>  <scratch_subdir>  (121) 
/opt/xchem-fragalysis-2/maxwin/BulkDock/SCRATCH/505737/C215-P199

>  <fragmenstein_runtime>  (121) 
6.97334885597229

>  <fragmenstein_outcome>  (121) 
too moved

>  <fragmenstein_mode>  (121) 
expansion

>  <fragmenstein_error>  (121) 


$$$$
C215-P128
     RDKit          3D

 60 63  0  0  0  0  0  0  0  0999 V2000
   -2.1976   -8.2631   32.2460 C   0  0  0  0  0  0  0  0  0  0  0  0
   -1.1214   -8.1556   31.3587 O   0  0  0  0  0  0  0  0  0  0  0  0
   -0.3847   -6.9743   31.6821 C   0  0  0  0  0  0  0  0  0  0  0  0
    0.5726   -6.8065   30.5219 C   0  0  0  0  0  0  0  0  0  0  0  0
    1.6728   -5.7567   30.7057 C   0  0  0  0  0  0  0  0  0  0  0  0
    1.6978   -5.1230   32.1023 C   0  0  0  0  0  0  0  0  0  0  0  0
    2.9979   -4.3881   32.3762 C   0  0  0  0  0  0  0  0  0  0  0  0
    2.9734   -3.4061   33.2867 C   0  0  0  0  0  0  0  0  0  0  0  0
    4.0260   -2.6365   33.7209 N   0  0  0  0  0  0  0  0  0  0  0  0
    3.3747   -1.5729   34.4848 C   0  0  0  0  0  0  0  0  0  0  0  0
    1.9086   -1.7502   34.4838 N   0  0  0  0  0  0  0  0  0  0  0  0
    1.7491   -3.0035   33.8340 N   0  0  0  0  0  0  0  0  0  0  0  0
    0.6018   -3.1242   33.1233 N   0  0  0  0  0  0  0  0  0  0  0  0
    0.6165   -4.0528   32.2022 C   0  0  0  0  0  0  0  0  0  0  0  0
   -0.3608   -3.8813   31.0679 C   0  0  0  0  0  0  0  0  0  0  0  0
    0.2348   -2.8269   30.1606 C   0  0  0  0  0  0  0  0  0  0  0  0
    0.2874   -1.5806   30.9025 N   0  0  0  0  0  0  0  0  0  0  0  0
   -1.1600   -0.7736   31.0559 S   0  0  0  0  0  0  0  0  0  0  0  0
   -2.2586   -1.7122   31.0838 O   0  0  0  0  0  0  0  0  0  0  0  0
   -0.9902    0.1972   32.1124 O   0  0  0  0  0  0  0  0  0  0  0  0
   -1.1420    0.0498   29.5178 C   0  0  0  0  0  0  0  0  0  0  0  0
   -0.5952    1.3155   29.3920 C   0  0  0  0  0  0  0  0  0  0  0  0
   -0.8269    2.0203   28.2175 C   0  0  0  0  0  0  0  0  0  0  0  0
   -1.5602    1.4138   27.2117 C   0  0  0  0  0  0  0  0  0  0  0  0
   -1.9493    2.1178   26.0803 N   0  0  0  0  0  0  0  0  0  0  0  0
   -1.9377    0.1332   27.2679 N   0  0  0  0  0  0  0  0  0  0  0  0
   -1.7245   -0.5368   28.4174 C   0  0  0  0  0  0  0  0  0  0  0  0
    1.4962   -6.1543   33.2236 C   0  0  0  0  0  0  0  0  0  0  0  0
    0.2395   -7.0010   33.0939 C   0  0  0  0  0  0  0  0  0  0  0  0
   -0.7326   -6.5497   34.0598 O   0  0  0  0  0  0  0  0  0  0  0  0
   -0.5382   -7.0766   35.3693 C   0  0  0  0  0  0  0  0  0  0  0  0
   -3.0968   -8.4572   31.6773 H   0  0  0  0  0  0  0  0  0  0  0  0
   -2.3517   -7.3418   32.7838 H   0  0  0  0  0  0  0  0  0  0  0  0
   -1.9848   -9.0233   32.9759 H   0  0  0  0  0  0  0  0  0  0  0  0
   -1.1163   -6.1644   31.6600 H   0  0  0  0  0  0  0  0  0  0  0  0
   -0.0332   -6.5195   29.6589 H   0  0  0  0  0  0  0  0  0  0  0  0
    0.9423   -7.7787   30.1995 H   0  0  0  0  0  0  0  0  0  0  0  0
    1.5613   -5.0186   29.9087 H   0  0  0  0  0  0  0  0  0  0  0  0
    2.6505   -6.1332   30.4359 H   0  0  0  0  0  0  0  0  0  0  0  0
    3.9340   -4.6839   31.9249 H   0  0  0  0  0  0  0  0  0  0  0  0
    4.5931   -2.3041   32.9489 H   0  0  0  0  0  0  0  0  0  0  0  0
    3.6208   -0.5970   34.0518 H   0  0  0  0  0  0  0  0  0  0  0  0
    3.7532   -1.5869   35.5133 H   0  0  0  0  0  0  0  0  0  0  0  0
    1.5873   -1.8713   35.4413 H   0  0  0  0  0  0  0  0  0  0  0  0
   -0.5611   -4.7343   30.4457 H   0  0  0  0  0  0  0  0  0  0  0  0
   -1.3225   -3.6403   31.5194 H   0  0  0  0  0  0  0  0  0  0  0  0
    1.2625   -3.0441   29.8569 H   0  0  0  0  0  0  0  0  0  0  0  0
   -0.3390   -2.7406   29.2363 H   0  0  0  0  0  0  0  0  0  0  0  0
    0.7815   -1.5912   31.8093 H   0  0  0  0  0  0  0  0  0  0  0  0
   -0.0561    1.7826   30.2109 H   0  0  0  0  0  0  0  0  0  0  0  0
   -0.4902    3.0458   28.1101 H   0  0  0  0  0  0  0  0  0  0  0  0
   -2.4673    2.9552   26.3379 H   0  0  0  0  0  0  0  0  0  0  0  0
   -2.5701    1.4939   25.5619 H   0  0  0  0  0  0  0  0  0  0  0  0
   -2.1030   -1.5539   28.4124 H   0  0  0  0  0  0  0  0  0  0  0  0
    1.5117   -5.6636   34.2043 H   0  0  0  0  0  0  0  0  0  0  0  0
    2.3628   -6.8197   33.2351 H   0  0  0  0  0  0  0  0  0  0  0  0
    0.4734   -8.0230   33.3479 H   0  0  0  0  0  0  0  0  0  0  0  0
   -0.6965   -8.1562   35.3701 H   0  0  0  0  0  0  0  0  0  0  0  0
   -1.2765   -6.6174   36.0309 H   0  0  0  0  0  0  0  0  0  0  0  0
    0.4598   -6.8469   35.7511 H   0  0  0  0  0  0  0  0  0  0  0  0
  1  2  1  0
  2  3  1  0
  3  4  1  0
  4  5  1  0
  5  6  1  0
  6  7  1  0
  7  8  2  0
  8  9  1  0
  9 10  1  0
 10 11  1  0
 11 12  1  0
 12 13  1  0
 13 14  2  0
 14 15  1  0
 15 16  1  0
 16 17  1  0
 17 18  1  0
 18 19  2  0
 18 20  2  0
 18 21  1  0
 21 22  2  0
 22 23  1  0
 23 24  2  0
 24 25  1  0
 24 26  1  0
 26 27  2  0
  6 28  1  0
 28 29  1  0
 29 30  1  0
 30 31  1  0
 29  3  1  0
 14  6  1  0
 27 21  1  0
 12  8  1  0
  1 32  1  0
  1 33  1  0
  1 34  1  0
  3 35  1  0
  4 36  1  0
  4 37  1  0
  5 38  1  0
  5 39  1  0
  7 40  1  0
  9 41  1  0
 10 42  1  0
 10 43  1  0
 11 44  1  0
 15 45  1  0
 15 46  1  0
 16 47  1  0
 16 48  1  0
 17 49  1  0
 22 50  1  0
 23 51  1  0
 25 52  1  0
 25 53  1  0
 27 54  1  0
 28 55  1  0
 28 56  1  0
 29 57  1  0
 31 58  1  0
 31 59  1  0
 31 60  1  0
M  END
>  <Energy>  (122) 
-36.38807667136355

>  <compound_id>  (122) 
215

>  <target_id>  (122) 
1

>  <reference_id>  (122) 
128

>  <inspiration_ids>  (122) 
[199, 128]

>  <energy_score>  (122) 
-65.73763563078472

>  <distance_score>  (122) 
1.5261059429454775

>  <path>  (122) 
/opt/xchem-fragalysis-2/maxwin/BulkDock/SCRATCH/505737/C215-P128/C215-P128.minimised.mol

>  <scratch_subdir>  (122) 
/opt/xchem-fragalysis-2/maxwin/BulkDock/SCRATCH/505737/C215-P128

>  <fragmenstein_runtime>  (122) 
5.404279708862305

>  <fragmenstein_outcome>  (122) 
too moved

>  <fragmenstein_mode>  (122) 
expansion

>  <fragmenstein_error>  (122) 


$$$$
C215-P199
     RDKit          3D

 60 63  0  0  0  0  0  0  0  0999 V2000
   -0.9104   -9.1417   31.3755 C   0  0  0  0  0  0  0  0  0  0  0  0
   -1.6773   -7.9719   31.2774 O   0  0  0  0  0  0  0  0  0  0  0  0
   -0.9466   -6.8352   31.7171 C   0  0  0  0  0  0  0  0  0  0  0  0
    0.1912   -6.5507   30.7651 C   0  0  0  0  0  0  0  0  0  0  0  0
    1.4263   -6.1562   31.5378 C   0  0  0  0  0  0  0  0  0  0  0  0
    1.3220   -5.1515   32.6834 C   0  0  0  0  0  0  0  0  0  0  0  0
    2.3951   -5.4443   33.7215 C   0  0  0  0  0  0  0  0  0  0  0  0
    3.0975   -4.4316   34.2308 C   0  0  0  0  0  0  0  0  0  0  0  0
    4.0762   -4.4866   35.1961 N   0  0  0  0  0  0  0  0  0  0  0  0
    4.4262   -3.0764   35.3909 C   0  0  0  0  0  0  0  0  0  0  0  0
    3.8134   -2.2406   34.3317 N   0  0  0  0  0  0  0  0  0  0  0  0
    2.8661   -3.1390   33.7863 N   0  0  0  0  0  0  0  0  0  0  0  0
    2.3728   -2.8561   32.5719 N   0  0  0  0  0  0  0  0  0  0  0  0
    1.6443   -3.7933   32.0238 C   0  0  0  0  0  0  0  0  0  0  0  0
    1.1842   -3.5757   30.5860 C   0  0  0  0  0  0  0  0  0  0  0  0
    1.0482   -2.1284   30.2518 C   0  0  0  0  0  0  0  0  0  0  0  0
    0.2288   -1.5164   31.2815 N   0  0  0  0  0  0  0  0  0  0  0  0
   -1.4225   -1.5217   31.1944 S   0  0  0  0  0  0  0  0  0  0  0  0
   -1.8678   -2.8782   30.9578 O   0  0  0  0  0  0  0  0  0  0  0  0
   -1.8901   -0.7562   32.3262 O   0  0  0  0  0  0  0  0  0  0  0  0
   -1.6169   -0.5510   29.7570 C   0  0  0  0  0  0  0  0  0  0  0  0
   -0.9476    0.6653   29.6429 C   0  0  0  0  0  0  0  0  0  0  0  0
   -1.0935    1.4055   28.4765 C   0  0  0  0  0  0  0  0  0  0  0  0
   -1.9112    0.9072   27.4797 C   0  0  0  0  0  0  0  0  0  0  0  0
   -2.1871    1.6634   26.3452 N   0  0  0  0  0  0  0  0  0  0  0  0
   -2.4855   -0.3027   27.5523 N   0  0  0  0  0  0  0  0  0  0  0  0
   -2.3227   -1.0270   28.6813 C   0  0  0  0  0  0  0  0  0  0  0  0
   -0.0147   -5.3194   33.4216 C   0  0  0  0  0  0  0  0  0  0  0  0
   -0.5193   -6.7697   33.2072 C   0  0  0  0  0  0  0  0  0  0  0  0
   -1.5598   -7.1460   34.0907 O   0  0  0  0  0  0  0  0  0  0  0  0
   -1.0837   -7.4928   35.3860 C   0  0  0  0  0  0  0  0  0  0  0  0
   -1.5543   -9.9944   31.2820 H   0  0  0  0  0  0  0  0  0  0  0  0
   -0.4328   -9.1704   32.3422 H   0  0  0  0  0  0  0  0  0  0  0  0
   -0.2016   -9.2122   30.5517 H   0  0  0  0  0  0  0  0  0  0  0  0
   -1.5888   -5.9860   31.5652 H   0  0  0  0  0  0  0  0  0  0  0  0
    0.4302   -7.3936   30.1154 H   0  0  0  0  0  0  0  0  0  0  0  0
   -0.1224   -5.8034   30.0370 H   0  0  0  0  0  0  0  0  0  0  0  0
    2.1732   -5.8663   30.8010 H   0  0  0  0  0  0  0  0  0  0  0  0
    1.7474   -7.0587   32.0309 H   0  0  0  0  0  0  0  0  0  0  0  0
    2.5474   -6.4471   34.1001 H   0  0  0  0  0  0  0  0  0  0  0  0
    3.7356   -4.9346   36.0410 H   0  0  0  0  0  0  0  0  0  0  0  0
    4.0557   -2.7399   36.3668 H   0  0  0  0  0  0  0  0  0  0  0  0
    5.5150   -2.9567   35.3882 H   0  0  0  0  0  0  0  0  0  0  0  0
    4.5164   -2.1151   33.6068 H   0  0  0  0  0  0  0  0  0  0  0  0
    1.8854   -4.0387   29.8869 H   0  0  0  0  0  0  0  0  0  0  0  0
    0.2010   -4.0144   30.4675 H   0  0  0  0  0  0  0  0  0  0  0  0
    2.0214   -1.6249   30.2367 H   0  0  0  0  0  0  0  0  0  0  0  0
    0.6196   -2.0052   29.2531 H   0  0  0  0  0  0  0  0  0  0  0  0
    0.6620   -1.2570   32.1730 H   0  0  0  0  0  0  0  0  0  0  0  0
   -0.3306    1.0451   30.4526 H   0  0  0  0  0  0  0  0  0  0  0  0
   -0.6121    2.3707   28.3639 H   0  0  0  0  0  0  0  0  0  0  0  0
   -2.8765    1.1200   25.8236 H   0  0  0  0  0  0  0  0  0  0  0  0
   -2.5991    2.5578   26.5988 H   0  0  0  0  0  0  0  0  0  0  0  0
   -2.8103   -1.9957   28.6782 H   0  0  0  0  0  0  0  0  0  0  0  0
   -0.7511   -4.5939   33.0542 H   0  0  0  0  0  0  0  0  0  0  0  0
    0.0710   -5.0975   34.4928 H   0  0  0  0  0  0  0  0  0  0  0  0
    0.2908   -7.4851   33.3797 H   0  0  0  0  0  0  0  0  0  0  0  0
   -1.8150   -8.1625   35.8338 H   0  0  0  0  0  0  0  0  0  0  0  0
   -0.1279   -8.0253   35.3557 H   0  0  0  0  0  0  0  0  0  0  0  0
   -0.9906   -6.5944   36.0013 H   0  0  0  0  0  0  0  0  0  0  0  0
  1  2  1  0
  2  3  1  0
  3  4  1  0
  4  5  1  0
  5  6  1  0
  6  7  1  0
  7  8  2  0
  8  9  1  0
  9 10  1  0
 10 11  1  0
 11 12  1  0
 12 13  1  0
 13 14  2  0
 14 15  1  0
 15 16  1  0
 16 17  1  0
 17 18  1  0
 18 19  2  0
 18 20  2  0
 18 21  1  0
 21 22  2  0
 22 23  1  0
 23 24  2  0
 24 25  1  0
 24 26  1  0
 26 27  2  0
  6 28  1  0
 28 29  1  0
 29 30  1  0
 30 31  1  0
 29  3  1  0
 14  6  1  0
 27 21  1  0
 12  8  1  0
  1 32  1  0
  1 33  1  0
  1 34  1  0
  3 35  1  0
  4 36  1  0
  4 37  1  0
  5 38  1  0
  5 39  1  0
  7 40  1  0
  9 41  1  0
 10 42  1  0
 10 43  1  0
 11 44  1  0
 15 45  1  0
 15 46  1  0
 16 47  1  0
 16 48  1  0
 17 49  1  0
 22 50  1  0
 23 51  1  0
 25 52  1  0
 25 53  1  0
 27 54  1  0
 28 55  1  0
 28 56  1  0
 29 57  1  0
 31 58  1  0
 31 59  1  0
 31 60  1  0
M  END
>  <Energy>  (123) 
-43.069987230519729

>  <compound_id>  (123) 
215

>  <target_id>  (123) 
1

>  <reference_id>  (123) 
199

>  <inspiration_ids>  (123) 
[199, 129]

>  <energy_score>  (123) 
-72.41954618994306

>  <distance_score>  (123) 
1.4303143053122531

>  <path>  (123) 
/opt/xchem-fragalysis-2/maxwin/BulkDock/SCRATCH/505737/C215-P199/C215-P199.minimised.mol

>  <scratch_subdir>  (123) 
/opt/xchem-fragalysis-2/maxwin/BulkDock/SCRATCH/505737/C215-P199

>  <fragmenstein_runtime>  (123) 
5.885310888290405

>  <fragmenstein_outcome>  (123) 
too moved

>  <fragmenstein_mode>  (123) 
expansion

>  <fragmenstein_error>  (123) 


$$$$
C215-P129
     RDKit          3D

 60 63  0  0  0  0  0  0  0  0999 V2000
   -1.6416   -8.6811   32.3215 C   0  0  0  0  0  0  0  0  0  0  0  0
   -1.9038   -7.5215   31.5880 O   0  0  0  0  0  0  0  0  0  0  0  0
   -0.9917   -6.4804   31.8934 C   0  0  0  0  0  0  0  0  0  0  0  0
    0.1737   -6.6708   30.9393 C   0  0  0  0  0  0  0  0  0  0  0  0
    1.4959   -6.3143   31.5884 C   0  0  0  0  0  0  0  0  0  0  0  0
    1.5801   -5.1472   32.5706 C   0  0  0  0  0  0  0  0  0  0  0  0
    2.6602   -5.4566   33.5942 C   0  0  0  0  0  0  0  0  0  0  0  0
    3.5659   -4.5240   33.8929 C   0  0  0  0  0  0  0  0  0  0  0  0
    4.6047   -4.6210   34.7861 N   0  0  0  0  0  0  0  0  0  0  0  0
    5.3731   -3.3990   34.5524 C   0  0  0  0  0  0  0  0  0  0  0  0
    4.7527   -2.5868   33.4807 N   0  0  0  0  0  0  0  0  0  0  0  0
    3.5618   -3.3093   33.2242 N   0  0  0  0  0  0  0  0  0  0  0  0
    2.9914   -3.1231   32.0225 N   0  0  0  0  0  0  0  0  0  0  0  0
    2.0394   -3.9593   31.7032 C   0  0  0  0  0  0  0  0  0  0  0  0
    1.4138   -3.8037   30.3270 C   0  0  0  0  0  0  0  0  0  0  0  0
    1.2115   -2.3566   30.0132 C   0  0  0  0  0  0  0  0  0  0  0  0
    0.4719   -1.7795   31.1269 N   0  0  0  0  0  0  0  0  0  0  0  0
   -1.1673   -1.5964   31.0712 S   0  0  0  0  0  0  0  0  0  0  0  0
   -1.7586   -2.8890   30.8029 O   0  0  0  0  0  0  0  0  0  0  0  0
   -1.5334   -0.8268   32.2385 O   0  0  0  0  0  0  0  0  0  0  0  0
   -1.2723   -0.5639   29.6695 C   0  0  0  0  0  0  0  0  0  0  0  0
   -0.7667    0.7293   29.7160 C   0  0  0  0  0  0  0  0  0  0  0  0
   -0.9131    1.5495   28.6018 C   0  0  0  0  0  0  0  0  0  0  0  0
   -1.5510    1.0388   27.4883 C   0  0  0  0  0  0  0  0  0  0  0  0
   -1.8496    1.8423   26.3961 N   0  0  0  0  0  0  0  0  0  0  0  0
   -1.9201   -0.2448   27.4021 N   0  0  0  0  0  0  0  0  0  0  0  0
   -1.7722   -1.0374   28.4832 C   0  0  0  0  0  0  0  0  0  0  0  0
    0.2754   -4.9729   33.3552 C   0  0  0  0  0  0  0  0  0  0  0  0
   -0.4970   -6.3102   33.3566 C   0  0  0  0  0  0  0  0  0  0  0  0
   -1.5473   -6.3159   34.3069 O   0  0  0  0  0  0  0  0  0  0  0  0
   -1.0869   -6.5780   35.6292 C   0  0  0  0  0  0  0  0  0  0  0  0
   -1.8705   -9.5232   31.6837 H   0  0  0  0  0  0  0  0  0  0  0  0
   -2.2429   -8.6788   33.2289 H   0  0  0  0  0  0  0  0  0  0  0  0
   -0.5915   -8.7623   32.5706 H   0  0  0  0  0  0  0  0  0  0  0  0
   -1.4929   -5.5518   31.6170 H   0  0  0  0  0  0  0  0  0  0  0  0
    0.2359   -7.7097   30.5880 H   0  0  0  0  0  0  0  0  0  0  0  0
   -0.0110   -6.1202   30.0144 H   0  0  0  0  0  0  0  0  0  0  0  0
    2.2395   -6.1968   30.7974 H   0  0  0  0  0  0  0  0  0  0  0  0
    1.7477   -7.1809   32.1811 H   0  0  0  0  0  0  0  0  0  0  0  0
    2.6533   -6.3931   34.1392 H   0  0  0  0  0  0  0  0  0  0  0  0
    5.1246   -5.4850   34.7025 H   0  0  0  0  0  0  0  0  0  0  0  0
    5.4036   -2.8113   35.4764 H   0  0  0  0  0  0  0  0  0  0  0  0
    6.4055   -3.6495   34.2823 H   0  0  0  0  0  0  0  0  0  0  0  0
    5.3223   -2.6759   32.6439 H   0  0  0  0  0  0  0  0  0  0  0  0
    2.0457   -4.2841   29.5745 H   0  0  0  0  0  0  0  0  0  0  0  0
    0.4273   -4.2557   30.3182 H   0  0  0  0  0  0  0  0  0  0  0  0
    2.1609   -1.8205   29.9065 H   0  0  0  0  0  0  0  0  0  0  0  0
    0.6912   -2.2569   29.0580 H   0  0  0  0  0  0  0  0  0  0  0  0
    0.9853   -1.3567   31.9033 H   0  0  0  0  0  0  0  0  0  0  0  0
   -0.2856    1.1089   30.6127 H   0  0  0  0  0  0  0  0  0  0  0  0
   -0.5793    2.5819   28.6187 H   0  0  0  0  0  0  0  0  0  0  0  0
   -2.4108    1.2623   25.7716 H   0  0  0  0  0  0  0  0  0  0  0  0
   -2.3919    2.6555   26.6808 H   0  0  0  0  0  0  0  0  0  0  0  0
   -2.0978   -2.0626   28.3426 H   0  0  0  0  0  0  0  0  0  0  0  0
   -0.3436   -4.1789   32.9193 H   0  0  0  0  0  0  0  0  0  0  0  0
    0.4574   -4.6231   34.3790 H   0  0  0  0  0  0  0  0  0  0  0  0
    0.1690   -7.1363   33.6331 H   0  0  0  0  0  0  0  0  0  0  0  0
   -1.1597   -7.6513   35.8248 H   0  0  0  0  0  0  0  0  0  0  0  0
   -1.7262   -6.0361   36.3255 H   0  0  0  0  0  0  0  0  0  0  0  0
   -0.0567   -6.2500   35.7978 H   0  0  0  0  0  0  0  0  0  0  0  0
  1  2  1  0
  2  3  1  0
  3  4  1  0
  4  5  1  0
  5  6  1  0
  6  7  1  0
  7  8  2  0
  8  9  1  0
  9 10  1  0
 10 11  1  0
 11 12  1  0
 12 13  1  0
 13 14  2  0
 14 15  1  0
 15 16  1  0
 16 17  1  0
 17 18  1  0
 18 19  2  0
 18 20  2  0
 18 21  1  0
 21 22  2  0
 22 23  1  0
 23 24  2  0
 24 25  1  0
 24 26  1  0
 26 27  2  0
  6 28  1  0
 28 29  1  0
 29 30  1  0
 30 31  1  0
 29  3  1  0
 14  6  1  0
 27 21  1  0
 12  8  1  0
  1 32  1  0
  1 33  1  0
  1 34  1  0
  3 35  1  0
  4 36  1  0
  4 37  1  0
  5 38  1  0
  5 39  1  0
  7 40  1  0
  9 41  1  0
 10 42  1  0
 10 43  1  0
 11 44  1  0
 15 45  1  0
 15 46  1  0
 16 47  1  0
 16 48  1  0
 17 49  1  0
 22 50  1  0
 23 51  1  0
 25 52  1  0
 25 53  1  0
 27 54  1  0
 28 55  1  0
 28 56  1  0
 29 57  1  0
 31 58  1  0
 31 59  1  0
 31 60  1  0
M  END
>  <Energy>  (124) 
-47.964612252507024

>  <compound_id>  (124) 
215

>  <target_id>  (124) 
1

>  <reference_id>  (124) 
129

>  <inspiration_ids>  (124) 
[199, 129]

>  <energy_score>  (124) 
-77.3141712119301

>  <distance_score>  (124) 
1.454014785964121

>  <path>  (124) 
/opt/xchem-fragalysis-2/maxwin/BulkDock/SCRATCH/505737/C215-P129/C215-P129.minimised.mol

>  <scratch_subdir>  (124) 
/opt/xchem-fragalysis-2/maxwin/BulkDock/SCRATCH/505737/C215-P129

>  <fragmenstein_runtime>  (124) 
6.134146451950073

>  <fragmenstein_outcome>  (124) 
too moved

>  <fragmenstein_mode>  (124) 
expansion

>  <fragmenstein_error>  (124) 


$$$$
C247-P199
     RDKit          3D

 59 63  0  0  0  0  0  0  0  0999 V2000
   -2.1430    1.6846   26.5306 N   0  0  0  0  0  0  0  0  0  0  0  0
   -1.8057    0.8584   27.5991 C   0  0  0  0  0  0  0  0  0  0  0  0
   -0.8907    1.2686   28.5550 C   0  0  0  0  0  0  0  0  0  0  0  0
   -0.6398    0.4350   29.6404 C   0  0  0  0  0  0  0  0  0  0  0  0
   -1.3018   -0.7882   29.7115 C   0  0  0  0  0  0  0  0  0  0  0  0
   -1.0780   -1.8331   31.0984 S   0  0  0  0  0  0  0  0  0  0  0  0
   -2.0508   -2.9035   31.0560 O   0  0  0  0  0  0  0  0  0  0  0  0
   -0.9244   -0.9625   32.2424 O   0  0  0  0  0  0  0  0  0  0  0  0
    0.4255   -2.4821   30.7587 N   0  0  0  0  0  0  0  0  0  0  0  0
    0.6129   -3.4268   29.6604 C   0  0  0  0  0  0  0  0  0  0  0  0
    1.4366   -4.6048   30.1736 C   0  0  0  0  0  0  0  0  0  0  0  0
    0.7127   -5.2849   31.3480 C   0  0  0  0  0  0  0  0  0  0  0  0
    0.2014   -6.5574   30.9204 N   0  0  0  0  0  0  0  0  0  0  0  0
   -0.3750   -7.2222   31.9268 C   0  0  0  0  0  0  0  0  0  0  0  0
   -1.3062   -8.1483   31.7789 N   0  0  0  0  0  0  0  0  0  0  0  0
   -1.6222   -8.4278   33.0515 N   0  0  0  0  0  0  0  0  0  0  0  0
   -0.9238   -7.7133   33.9846 C   0  0  0  0  0  0  0  0  0  0  0  0
   -0.0748   -6.9007   33.2808 C   0  0  0  0  0  0  0  0  0  0  0  0
    0.9016   -5.8410   33.7290 C   0  0  0  0  0  0  0  0  0  0  0  0
    1.9891   -6.3516   34.7280 C   0  0  0  0  0  0  0  0  0  0  0  0
    2.3882   -5.2742   35.7854 C   0  0  0  0  0  0  0  0  0  0  0  0
    1.6653   -3.9434   35.5208 C   0  0  0  0  0  0  0  0  0  0  0  0
    2.3617   -2.9572   34.5985 C   0  0  0  0  0  0  0  0  0  0  0  0
    1.8088   -1.6803   34.4032 C   0  0  0  0  0  0  0  0  0  0  0  0
    2.3069   -0.8151   33.4293 C   0  0  0  0  0  0  0  0  0  0  0  0
    3.3796   -1.2057   32.6426 C   0  0  0  0  0  0  0  0  0  0  0  0
    3.9860   -2.4349   32.8709 C   0  0  0  0  0  0  0  0  0  0  0  0
    3.5076   -3.2874   33.8646 C   0  0  0  0  0  0  0  0  0  0  0  0
    0.1043   -4.5103   34.7664 S   0  0  0  0  0  0  0  0  0  0  0  0
   -0.6700   -5.0972   35.8467 O   0  0  0  0  0  0  0  0  0  0  0  0
   -0.4403   -3.4845   33.9011 O   0  0  0  0  0  0  0  0  0  0  0  0
    1.6196   -5.3383   32.4988 N   0  0  0  0  0  0  0  0  0  0  0  0
   -2.1680   -1.1394   28.7042 C   0  0  0  0  0  0  0  0  0  0  0  0
   -2.4233   -0.3297   27.6520 N   0  0  0  0  0  0  0  0  0  0  0  0
   -2.8709    1.1793   26.0230 H   0  0  0  0  0  0  0  0  0  0  0  0
   -2.5188    2.5671   26.8675 H   0  0  0  0  0  0  0  0  0  0  0  0
   -0.4012    2.2326   28.4686 H   0  0  0  0  0  0  0  0  0  0  0  0
    0.0479    0.7483   30.4204 H   0  0  0  0  0  0  0  0  0  0  0  0
    1.2124   -2.0390   31.2298 H   0  0  0  0  0  0  0  0  0  0  0  0
    1.1481   -2.9234   28.8488 H   0  0  0  0  0  0  0  0  0  0  0  0
   -0.3415   -3.7836   29.2603 H   0  0  0  0  0  0  0  0  0  0  0  0
    2.4186   -4.2204   30.4817 H   0  0  0  0  0  0  0  0  0  0  0  0
    1.6343   -5.3063   29.3552 H   0  0  0  0  0  0  0  0  0  0  0  0
   -0.1535   -4.6778   31.6306 H   0  0  0  0  0  0  0  0  0  0  0  0
   -0.3178   -6.5577   30.0523 H   0  0  0  0  0  0  0  0  0  0  0  0
   -2.3252   -9.1351   33.2295 H   0  0  0  0  0  0  0  0  0  0  0  0
   -1.1062   -7.8539   35.0424 H   0  0  0  0  0  0  0  0  0  0  0  0
    2.8866   -6.6887   34.2025 H   0  0  0  0  0  0  0  0  0  0  0  0
    1.6295   -7.2375   35.2684 H   0  0  0  0  0  0  0  0  0  0  0  0
    3.4742   -5.1774   35.8808 H   0  0  0  0  0  0  0  0  0  0  0  0
    2.0482   -5.6520   36.7600 H   0  0  0  0  0  0  0  0  0  0  0  0
    1.4251   -3.4463   36.4670 H   0  0  0  0  0  0  0  0  0  0  0  0
    0.9257   -1.3688   34.9637 H   0  0  0  0  0  0  0  0  0  0  0  0
    1.8330    0.1527   33.2791 H   0  0  0  0  0  0  0  0  0  0  0  0
    3.7697   -0.5354   31.8805 H   0  0  0  0  0  0  0  0  0  0  0  0
    4.8544   -2.7245   32.2826 H   0  0  0  0  0  0  0  0  0  0  0  0
    4.0216   -4.2374   33.9890 H   0  0  0  0  0  0  0  0  0  0  0  0
    1.8451   -4.3610   32.6706 H   0  0  0  0  0  0  0  0  0  0  0  0
   -2.7163   -2.0750   28.7026 H   0  0  0  0  0  0  0  0  0  0  0  0
  1  2  1  0
  2  3  2  0
  3  4  1  0
  4  5  2  0
  5  6  1  0
  6  7  2  0
  6  8  2  0
  6  9  1  0
  9 10  1  0
 10 11  1  0
 11 12  1  0
 12 13  1  0
 13 14  1  0
 14 15  2  0
 15 16  1  0
 16 17  1  0
 17 18  2  0
 18 19  1  0
 19 20  1  0
 20 21  1  0
 21 22  1  0
 22 23  1  0
 23 24  2  0
 24 25  1  0
 25 26  2  0
 26 27  1  0
 27 28  2  0
 22 29  1  0
 29 30  2  0
 29 31  2  0
 19 32  1  0
  5 33  1  0
 33 34  2  0
 34  2  1  0
 32 12  1  0
 18 14  1  0
 29 19  1  0
 28 23  1  0
  1 35  1  0
  1 36  1  0
  3 37  1  0
  4 38  1  0
  9 39  1  0
 10 40  1  0
 10 41  1  0
 11 42  1  0
 11 43  1  0
 12 44  1  0
 13 45  1  0
 16 46  1  0
 17 47  1  0
 20 48  1  0
 20 49  1  0
 21 50  1  0
 21 51  1  0
 22 52  1  0
 24 53  1  0
 25 54  1  0
 26 55  1  0
 27 56  1  0
 28 57  1  0
 32 58  1  0
 33 59  1  0
M  END
>  <Energy>  (125) 
-78.453134987140842

>  <compound_id>  (125) 
247

>  <target_id>  (125) 
1

>  <reference_id>  (125) 
199

>  <inspiration_ids>  (125) 
[199, 133]

>  <energy_score>  (125) 
-64.18451492605786

>  <distance_score>  (125) 
1.207760376451139

>  <path>  (125) 
/opt/xchem-fragalysis-2/maxwin/BulkDock/SCRATCH/505737/C247-P199/C247-P199.minimised.mol

>  <scratch_subdir>  (125) 
/opt/xchem-fragalysis-2/maxwin/BulkDock/SCRATCH/505737/C247-P199

>  <fragmenstein_runtime>  (125) 
10.425524473190308

>  <fragmenstein_outcome>  (125) 
too moved

>  <fragmenstein_mode>  (125) 
expansion

>  <fragmenstein_error>  (125) 


$$$$
C247-P133
     RDKit          3D

 59 63  0  0  0  0  0  0  0  0999 V2000
   -1.7904    1.7970   26.5296 N   0  0  0  0  0  0  0  0  0  0  0  0
   -1.4468    0.9547   27.5790 C   0  0  0  0  0  0  0  0  0  0  0  0
   -0.7526    1.4225   28.6794 C   0  0  0  0  0  0  0  0  0  0  0  0
   -0.5348    0.5579   29.7499 C   0  0  0  0  0  0  0  0  0  0  0  0
   -1.0082   -0.7473   29.6655 C   0  0  0  0  0  0  0  0  0  0  0  0
   -0.9081   -1.8292   31.0386 S   0  0  0  0  0  0  0  0  0  0  0  0
   -1.9455   -2.8329   30.9362 O   0  0  0  0  0  0  0  0  0  0  0  0
   -0.7581   -0.9932   32.2096 O   0  0  0  0  0  0  0  0  0  0  0  0
    0.5690   -2.5617   30.7491 N   0  0  0  0  0  0  0  0  0  0  0  0
    0.7413   -3.4735   29.6178 C   0  0  0  0  0  0  0  0  0  0  0  0
    1.4842   -4.7145   30.1022 C   0  0  0  0  0  0  0  0  0  0  0  0
    0.6908   -5.3894   31.2325 C   0  0  0  0  0  0  0  0  0  0  0  0
    0.1414   -6.6318   30.7611 N   0  0  0  0  0  0  0  0  0  0  0  0
   -0.5048   -7.2806   31.7370 C   0  0  0  0  0  0  0  0  0  0  0  0
   -1.4907   -8.1375   31.5365 N   0  0  0  0  0  0  0  0  0  0  0  0
   -1.8863   -8.4109   32.7866 N   0  0  0  0  0  0  0  0  0  0  0  0
   -1.1832   -7.7554   33.7589 C   0  0  0  0  0  0  0  0  0  0  0  0
   -0.2453   -6.9945   33.1065 C   0  0  0  0  0  0  0  0  0  0  0  0
    0.7626   -5.9845   33.6062 C   0  0  0  0  0  0  0  0  0  0  0  0
    1.7956   -6.5375   34.6353 C   0  0  0  0  0  0  0  0  0  0  0  0
    2.1984   -5.4735   35.7079 C   0  0  0  0  0  0  0  0  0  0  0  0
    1.5055   -4.1236   35.4485 C   0  0  0  0  0  0  0  0  0  0  0  0
    2.2532   -3.1236   34.5822 C   0  0  0  0  0  0  0  0  0  0  0  0
    1.7401   -1.8258   34.4185 C   0  0  0  0  0  0  0  0  0  0  0  0
    2.3042   -0.9305   33.5091 C   0  0  0  0  0  0  0  0  0  0  0  0
    3.4016   -1.3133   32.7535 C   0  0  0  0  0  0  0  0  0  0  0  0
    3.9632   -2.5692   32.9482 C   0  0  0  0  0  0  0  0  0  0  0  0
    3.4187   -3.4525   33.8791 C   0  0  0  0  0  0  0  0  0  0  0  0
   -0.0387   -4.6431   34.6257 S   0  0  0  0  0  0  0  0  0  0  0  0
   -0.8792   -5.2278   35.6568 O   0  0  0  0  0  0  0  0  0  0  0  0
   -0.5317   -3.6023   33.7490 O   0  0  0  0  0  0  0  0  0  0  0  0
    1.5518   -5.4949   32.4153 N   0  0  0  0  0  0  0  0  0  0  0  0
   -1.6163   -1.1564   28.5051 C   0  0  0  0  0  0  0  0  0  0  0  0
   -1.8353   -0.3207   27.4690 N   0  0  0  0  0  0  0  0  0  0  0  0
   -2.3680    1.2366   25.9018 H   0  0  0  0  0  0  0  0  0  0  0  0
   -2.3274    2.5947   26.8639 H   0  0  0  0  0  0  0  0  0  0  0  0
   -0.4275    2.4571   28.7211 H   0  0  0  0  0  0  0  0  0  0  0  0
   -0.0330    0.9190   30.6428 H   0  0  0  0  0  0  0  0  0  0  0  0
    1.3673   -2.1203   31.2024 H   0  0  0  0  0  0  0  0  0  0  0  0
    1.3227   -2.9688   28.8396 H   0  0  0  0  0  0  0  0  0  0  0  0
   -0.2176   -3.7706   29.1822 H   0  0  0  0  0  0  0  0  0  0  0  0
    2.4806   -4.4029   30.4445 H   0  0  0  0  0  0  0  0  0  0  0  0
    1.6562   -5.3963   29.2611 H   0  0  0  0  0  0  0  0  0  0  0  0
   -0.1622   -4.7539   31.4926 H   0  0  0  0  0  0  0  0  0  0  0  0
   -0.3875   -6.5692   29.8975 H   0  0  0  0  0  0  0  0  0  0  0  0
   -2.6657   -9.0479   32.9007 H   0  0  0  0  0  0  0  0  0  0  0  0
   -1.4247   -7.8890   34.8057 H   0  0  0  0  0  0  0  0  0  0  0  0
    2.6985   -6.9064   34.1355 H   0  0  0  0  0  0  0  0  0  0  0  0
    1.3840   -7.4096   35.1607 H   0  0  0  0  0  0  0  0  0  0  0  0
    3.2842   -5.4005   35.8227 H   0  0  0  0  0  0  0  0  0  0  0  0
    1.8354   -5.8540   36.6732 H   0  0  0  0  0  0  0  0  0  0  0  0
    1.2382   -3.6477   36.3985 H   0  0  0  0  0  0  0  0  0  0  0  0
    0.8408   -1.5159   34.9534 H   0  0  0  0  0  0  0  0  0  0  0  0
    1.8613    0.0549   33.3817 H   0  0  0  0  0  0  0  0  0  0  0  0
    3.8419   -0.6198   32.0412 H   0  0  0  0  0  0  0  0  0  0  0  0
    4.8488   -2.8557   32.3844 H   0  0  0  0  0  0  0  0  0  0  0  0
    3.9028   -4.4206   33.9821 H   0  0  0  0  0  0  0  0  0  0  0  0
    1.8074   -4.5292   32.6097 H   0  0  0  0  0  0  0  0  0  0  0  0
   -1.9860   -2.1648   28.3576 H   0  0  0  0  0  0  0  0  0  0  0  0
  1  2  1  0
  2  3  2  0
  3  4  1  0
  4  5  2  0
  5  6  1  0
  6  7  2  0
  6  8  2  0
  6  9  1  0
  9 10  1  0
 10 11  1  0
 11 12  1  0
 12 13  1  0
 13 14  1  0
 14 15  2  0
 15 16  1  0
 16 17  1  0
 17 18  2  0
 18 19  1  0
 19 20  1  0
 20 21  1  0
 21 22  1  0
 22 23  1  0
 23 24  2  0
 24 25  1  0
 25 26  2  0
 26 27  1  0
 27 28  2  0
 22 29  1  0
 29 30  2  0
 29 31  2  0
 19 32  1  0
  5 33  1  0
 33 34  2  0
 34  2  1  0
 32 12  1  0
 18 14  1  0
 29 19  1  0
 28 23  1  0
  1 35  1  0
  1 36  1  0
  3 37  1  0
  4 38  1  0
  9 39  1  0
 10 40  1  0
 10 41  1  0
 11 42  1  0
 11 43  1  0
 12 44  1  0
 13 45  1  0
 16 46  1  0
 17 47  1  0
 20 48  1  0
 20 49  1  0
 21 50  1  0
 21 51  1  0
 22 52  1  0
 24 53  1  0
 25 54  1  0
 26 55  1  0
 27 56  1  0
 28 57  1  0
 32 58  1  0
 33 59  1  0
M  END
>  <Energy>  (126) 
-77.395974829406072

>  <compound_id>  (126) 
247

>  <target_id>  (126) 
1

>  <reference_id>  (126) 
133

>  <inspiration_ids>  (126) 
[199, 133]

>  <energy_score>  (126) 
-63.12735476832249

>  <distance_score>  (126) 
1.2376533340690778

>  <path>  (126) 
/opt/xchem-fragalysis-2/maxwin/BulkDock/SCRATCH/505737/C247-P133/C247-P133.minimised.mol

>  <scratch_subdir>  (126) 
/opt/xchem-fragalysis-2/maxwin/BulkDock/SCRATCH/505737/C247-P133

>  <fragmenstein_runtime>  (126) 
10.118451118469238

>  <fragmenstein_outcome>  (126) 
too moved

>  <fragmenstein_mode>  (126) 
expansion

>  <fragmenstein_error>  (126) 


$$$$
C248-P199
     RDKit          3D

 56 60  0  0  0  0  0  0  0  0999 V2000
   -2.1004    1.7585   26.5693 N   0  0  0  0  0  0  0  0  0  0  0  0
   -1.7880    0.9137   27.6283 C   0  0  0  0  0  0  0  0  0  0  0  0
   -0.8642    1.2853   28.5928 C   0  0  0  0  0  0  0  0  0  0  0  0
   -0.6297    0.4274   29.6649 C   0  0  0  0  0  0  0  0  0  0  0  0
   -1.3130   -0.7836   29.7095 C   0  0  0  0  0  0  0  0  0  0  0  0
   -1.1042   -1.8784   31.0543 S   0  0  0  0  0  0  0  0  0  0  0  0
   -2.0954   -2.9336   30.9891 O   0  0  0  0  0  0  0  0  0  0  0  0
   -0.9661   -1.0781   32.2495 O   0  0  0  0  0  0  0  0  0  0  0  0
    0.3895   -2.5437   30.7236 N   0  0  0  0  0  0  0  0  0  0  0  0
    0.5903   -3.3901   29.5535 C   0  0  0  0  0  0  0  0  0  0  0  0
    0.9925   -4.7921   29.9827 C   0  0  0  0  0  0  0  0  0  0  0  0
   -0.0971   -5.4577   30.8183 C   0  0  0  0  0  0  0  0  0  0  0  0
   -0.3638   -4.9879   32.2055 N   0  0  0  0  0  0  0  0  0  0  0  0
    0.2630   -5.9814   33.1397 C   0  0  0  0  0  0  0  0  0  0  0  0
   -0.3378   -6.0142   34.5593 C   0  0  0  0  0  0  0  0  0  0  0  0
    0.1702   -4.7394   35.3327 C   0  0  0  0  0  0  0  0  0  0  0  0
    1.1792   -4.0782   34.3922 C   0  0  0  0  0  0  0  0  0  0  0  0
    2.1332   -2.9614   34.6355 C   0  0  0  0  0  0  0  0  0  0  0  0
    1.7923   -1.6879   34.1230 C   0  0  0  0  0  0  0  0  0  0  0  0
    2.7066   -0.6453   34.0896 C   0  0  0  0  0  0  0  0  0  0  0  0
    3.9732   -0.8521   34.6108 C   0  0  0  0  0  0  0  0  0  0  0  0
    4.3072   -2.0869   35.1726 C   0  0  0  0  0  0  0  0  0  0  0  0
    3.3928   -3.1402   35.1920 C   0  0  0  0  0  0  0  0  0  0  0  0
    1.9398   -5.4559   33.5554 S   0  0  0  0  0  0  0  0  0  0  0  0
    2.6778   -4.9651   32.4151 O   0  0  0  0  0  0  0  0  0  0  0  0
    2.5474   -6.3808   34.4947 O   0  0  0  0  0  0  0  0  0  0  0  0
    0.1409   -7.1987   32.3450 C   0  0  0  0  0  0  0  0  0  0  0  0
   -0.3805   -8.3832   32.5280 N   0  0  0  0  0  0  0  0  0  0  0  0
   -0.6743   -8.7814   31.2501 C   0  0  0  0  0  0  0  0  0  0  0  0
   -0.5205   -7.8460   30.3052 N   0  0  0  0  0  0  0  0  0  0  0  0
    0.0535   -6.8744   31.0247 N   0  0  0  0  0  0  0  0  0  0  0  0
   -2.1838   -1.0977   28.6926 C   0  0  0  0  0  0  0  0  0  0  0  0
   -2.4292   -0.2621   27.6607 N   0  0  0  0  0  0  0  0  0  0  0  0
   -2.4340    2.6584   26.9046 H   0  0  0  0  0  0  0  0  0  0  0  0
   -2.8434    1.2902   26.0489 H   0  0  0  0  0  0  0  0  0  0  0  0
   -0.3513    2.2389   28.5215 H   0  0  0  0  0  0  0  0  0  0  0  0
    0.0698    0.7108   30.4460 H   0  0  0  0  0  0  0  0  0  0  0  0
    1.1903   -2.2246   31.2699 H   0  0  0  0  0  0  0  0  0  0  0  0
   -0.3069   -3.4379   28.9280 H   0  0  0  0  0  0  0  0  0  0  0  0
    1.3814   -2.9481   28.9382 H   0  0  0  0  0  0  0  0  0  0  0  0
    1.9649   -4.7597   30.4553 H   0  0  0  0  0  0  0  0  0  0  0  0
    1.1712   -5.3854   29.0845 H   0  0  0  0  0  0  0  0  0  0  0  0
   -1.0092   -5.2831   30.2807 H   0  0  0  0  0  0  0  0  0  0  0  0
   -1.3608   -4.9892   32.3903 H   0  0  0  0  0  0  0  0  0  0  0  0
   -1.4148   -6.1247   34.5691 H   0  0  0  0  0  0  0  0  0  0  0  0
    0.0264   -6.9003   35.0995 H   0  0  0  0  0  0  0  0  0  0  0  0
   -0.6576   -4.0615   35.5648 H   0  0  0  0  0  0  0  0  0  0  0  0
    0.6359   -5.0356   36.2790 H   0  0  0  0  0  0  0  0  0  0  0  0
    0.5433   -3.6095   33.6374 H   0  0  0  0  0  0  0  0  0  0  0  0
    0.7967   -1.4976   33.7357 H   0  0  0  0  0  0  0  0  0  0  0  0
    2.4291    0.3217   33.6804 H   0  0  0  0  0  0  0  0  0  0  0  0
    4.7045   -0.0475   34.6025 H   0  0  0  0  0  0  0  0  0  0  0  0
    5.3018   -2.2329   35.5894 H   0  0  0  0  0  0  0  0  0  0  0  0
    3.7032   -4.0978   35.6050 H   0  0  0  0  0  0  0  0  0  0  0  0
   -1.0191   -9.7798   31.0134 H   0  0  0  0  0  0  0  0  0  0  0  0
   -2.7421   -2.0268   28.6629 H   0  0  0  0  0  0  0  0  0  0  0  0
  1  2  1  0
  2  3  2  0
  3  4  1  0
  4  5  2  0
  5  6  1  0
  6  7  2  0
  6  8  2  0
  6  9  1  0
  9 10  1  0
 10 11  1  0
 11 12  1  0
 12 13  1  0
 13 14  1  0
 14 15  1  0
 15 16  1  0
 16 17  1  0
 17 18  1  0
 18 19  2  0
 19 20  1  0
 20 21  2  0
 21 22  1  0
 22 23  2  0
 17 24  1  0
 24 25  2  0
 24 26  2  0
 14 27  1  0
 27 28  2  0
 28 29  1  0
 29 30  2  0
 30 31  1  0
  5 32  1  0
 32 33  2  0
 33  2  1  0
 31 12  1  0
 24 14  1  0
 31 27  1  0
 23 18  1  0
  1 34  1  0
  1 35  1  0
  3 36  1  0
  4 37  1  0
  9 38  1  0
 10 39  1  0
 10 40  1  0
 11 41  1  0
 11 42  1  0
 12 43  1  0
 13 44  1  0
 15 45  1  0
 15 46  1  0
 16 47  1  0
 16 48  1  0
 17 49  1  0
 19 50  1  0
 20 51  1  0
 21 52  1  0
 22 53  1  0
 23 54  1  0
 29 55  1  0
 32 56  1  0
M  END
>  <Energy>  (127) 
90.54965360405744

>  <compound_id>  (127) 
248

>  <target_id>  (127) 
1

>  <reference_id>  (127) 
199

>  <inspiration_ids>  (127) 
[199, 136]

>  <energy_score>  (127) 
-152.49208099017125

>  <distance_score>  (127) 
1.4739458556834044

>  <path>  (127) 
/opt/xchem-fragalysis-2/maxwin/BulkDock/SCRATCH/505737/C248-P199/C248-P199.minimised.mol

>  <scratch_subdir>  (127) 
/opt/xchem-fragalysis-2/maxwin/BulkDock/SCRATCH/505737/C248-P199

>  <fragmenstein_runtime>  (127) 
4.8821446895599365

>  <fragmenstein_outcome>  (127) 
too moved

>  <fragmenstein_mode>  (127) 
expansion

>  <fragmenstein_error>  (127) 


$$$$
C248-P136
     RDKit          3D

 56 60  0  0  0  0  0  0  0  0999 V2000
   -1.8229    2.0014   26.6249 N   0  0  0  0  0  0  0  0  0  0  0  0
   -1.4872    1.1022   27.6273 C   0  0  0  0  0  0  0  0  0  0  0  0
   -0.7759    1.4968   28.7463 C   0  0  0  0  0  0  0  0  0  0  0  0
   -0.5585    0.5702   29.7645 C   0  0  0  0  0  0  0  0  0  0  0  0
   -1.0420   -0.7235   29.6048 C   0  0  0  0  0  0  0  0  0  0  0  0
   -0.9289   -1.8944   30.8948 S   0  0  0  0  0  0  0  0  0  0  0  0
   -1.9663   -2.8945   30.7449 O   0  0  0  0  0  0  0  0  0  0  0  0
   -0.8069   -1.1631   32.1364 O   0  0  0  0  0  0  0  0  0  0  0  0
    0.5553   -2.5989   30.5904 N   0  0  0  0  0  0  0  0  0  0  0  0
    0.7815   -3.3939   29.3829 C   0  0  0  0  0  0  0  0  0  0  0  0
    1.2045   -4.8134   29.7491 C   0  0  0  0  0  0  0  0  0  0  0  0
    0.0370   -5.5820   30.3615 C   0  0  0  0  0  0  0  0  0  0  0  0
   -0.4453   -5.0823   31.6785 N   0  0  0  0  0  0  0  0  0  0  0  0
    0.0030   -6.0690   32.7245 C   0  0  0  0  0  0  0  0  0  0  0  0
   -0.8009   -5.9055   34.0091 C   0  0  0  0  0  0  0  0  0  0  0  0
   -0.2257   -4.6405   34.7481 C   0  0  0  0  0  0  0  0  0  0  0  0
    1.0320   -4.2250   33.9682 C   0  0  0  0  0  0  0  0  0  0  0  0
    2.0067   -3.1668   34.3532 C   0  0  0  0  0  0  0  0  0  0  0  0
    1.5706   -1.8325   34.2072 C   0  0  0  0  0  0  0  0  0  0  0  0
    2.4571   -0.7650   34.2611 C   0  0  0  0  0  0  0  0  0  0  0  0
    3.7947   -1.0138   34.5232 C   0  0  0  0  0  0  0  0  0  0  0  0
    4.2296   -2.3215   34.7427 C   0  0  0  0  0  0  0  0  0  0  0  0
    3.3436   -3.3970   34.6587 C   0  0  0  0  0  0  0  0  0  0  0  0
    1.6789   -5.7539   33.3514 S   0  0  0  0  0  0  0  0  0  0  0  0
    2.6260   -5.5375   32.2801 O   0  0  0  0  0  0  0  0  0  0  0  0
    2.0081   -6.6641   34.4332 O   0  0  0  0  0  0  0  0  0  0  0  0
   -0.0595   -7.2879   31.9506 C   0  0  0  0  0  0  0  0  0  0  0  0
   -0.6810   -8.4313   32.0307 N   0  0  0  0  0  0  0  0  0  0  0  0
   -0.6210   -8.8635   30.7347 C   0  0  0  0  0  0  0  0  0  0  0  0
   -0.1836   -7.9780   29.8345 N   0  0  0  0  0  0  0  0  0  0  0  0
    0.1951   -6.9879   30.6415 N   0  0  0  0  0  0  0  0  0  0  0  0
   -1.6735   -1.0545   28.4307 C   0  0  0  0  0  0  0  0  0  0  0  0
   -1.8969   -0.1575   27.4488 N   0  0  0  0  0  0  0  0  0  0  0  0
   -2.3308    2.7975   27.0057 H   0  0  0  0  0  0  0  0  0  0  0  0
   -2.4203    1.4879   25.9778 H   0  0  0  0  0  0  0  0  0  0  0  0
   -0.4326    2.5221   28.8414 H   0  0  0  0  0  0  0  0  0  0  0  0
   -0.0402    0.8727   30.6698 H   0  0  0  0  0  0  0  0  0  0  0  0
    1.3494   -2.2516   31.1295 H   0  0  0  0  0  0  0  0  0  0  0  0
   -0.1039   -3.4273   28.7422 H   0  0  0  0  0  0  0  0  0  0  0  0
    1.5768   -2.9108   28.8047 H   0  0  0  0  0  0  0  0  0  0  0  0
    2.0872   -4.7604   30.3749 H   0  0  0  0  0  0  0  0  0  0  0  0
    1.5395   -5.3273   28.8419 H   0  0  0  0  0  0  0  0  0  0  0  0
   -0.7689   -5.5083   29.6374 H   0  0  0  0  0  0  0  0  0  0  0  0
   -1.4646   -5.0792   31.6555 H   0  0  0  0  0  0  0  0  0  0  0  0
   -1.8615   -5.8113   33.8074 H   0  0  0  0  0  0  0  0  0  0  0  0
   -0.6912   -6.7824   34.6605 H   0  0  0  0  0  0  0  0  0  0  0  0
   -0.9609   -3.8294   34.7678 H   0  0  0  0  0  0  0  0  0  0  0  0
    0.0159   -4.8950   35.7860 H   0  0  0  0  0  0  0  0  0  0  0  0
    0.6524   -3.7465   33.0609 H   0  0  0  0  0  0  0  0  0  0  0  0
    0.5205   -1.6171   34.0244 H   0  0  0  0  0  0  0  0  0  0  0  0
    2.1021    0.2521   34.1207 H   0  0  0  0  0  0  0  0  0  0  0  0
    4.5020   -0.1905   34.5827 H   0  0  0  0  0  0  0  0  0  0  0  0
    5.2786   -2.5069   34.9652 H   0  0  0  0  0  0  0  0  0  0  0  0
    3.7377   -4.4015   34.7962 H   0  0  0  0  0  0  0  0  0  0  0  0
   -0.9079   -9.8662   30.4420 H   0  0  0  0  0  0  0  0  0  0  0  0
   -2.0589   -2.0474   28.2253 H   0  0  0  0  0  0  0  0  0  0  0  0
  1  2  1  0
  2  3  2  0
  3  4  1  0
  4  5  2  0
  5  6  1  0
  6  7  2  0
  6  8  2  0
  6  9  1  0
  9 10  1  0
 10 11  1  0
 11 12  1  0
 12 13  1  0
 13 14  1  0
 14 15  1  0
 15 16  1  0
 16 17  1  0
 17 18  1  0
 18 19  2  0
 19 20  1  0
 20 21  2  0
 21 22  1  0
 22 23  2  0
 17 24  1  0
 24 25  2  0
 24 26  2  0
 14 27  1  0
 27 28  2  0
 28 29  1  0
 29 30  2  0
 30 31  1  0
  5 32  1  0
 32 33  2  0
 33  2  1  0
 31 12  1  0
 24 14  1  0
 31 27  1  0
 23 18  1  0
  1 34  1  0
  1 35  1  0
  3 36  1  0
  4 37  1  0
  9 38  1  0
 10 39  1  0
 10 40  1  0
 11 41  1  0
 11 42  1  0
 12 43  1  0
 13 44  1  0
 15 45  1  0
 15 46  1  0
 16 47  1  0
 16 48  1  0
 17 49  1  0
 19 50  1  0
 20 51  1  0
 21 52  1  0
 22 53  1  0
 23 54  1  0
 29 55  1  0
 32 56  1  0
M  END
>  <Energy>  (128) 
88.23679345751124

>  <compound_id>  (128) 
248

>  <target_id>  (128) 
1

>  <reference_id>  (128) 
136

>  <inspiration_ids>  (128) 
[199, 136]

>  <energy_score>  (128) 
-154.80494113671585

>  <distance_score>  (128) 
1.3160383139317098

>  <path>  (128) 
/opt/xchem-fragalysis-2/maxwin/BulkDock/SCRATCH/505737/C248-P136/C248-P136.minimised.mol

>  <scratch_subdir>  (128) 
/opt/xchem-fragalysis-2/maxwin/BulkDock/SCRATCH/505737/C248-P136

>  <fragmenstein_runtime>  (128) 
4.6009252071380615

>  <fragmenstein_outcome>  (128) 
too moved

>  <fragmenstein_mode>  (128) 
expansion

>  <fragmenstein_error>  (128) 


$$$$
C249-P199
     RDKit          3D

 59 64  0  0  0  0  0  0  0  0999 V2000
   -2.1140    1.6659   26.4669 N   0  0  0  0  0  0  0  0  0  0  0  0
   -1.7917    0.8652   27.5594 C   0  0  0  0  0  0  0  0  0  0  0  0
   -0.9011    1.3041   28.5253 C   0  0  0  0  0  0  0  0  0  0  0  0
   -0.6914    0.5107   29.6486 C   0  0  0  0  0  0  0  0  0  0  0  0
   -1.3639   -0.7045   29.7430 C   0  0  0  0  0  0  0  0  0  0  0  0
   -1.2512   -1.6580   31.1995 S   0  0  0  0  0  0  0  0  0  0  0  0
   -2.0808   -2.8361   31.0776 O   0  0  0  0  0  0  0  0  0  0  0  0
   -1.3775   -0.7576   32.3227 O   0  0  0  0  0  0  0  0  0  0  0  0
    0.3408   -2.1247   31.1715 N   0  0  0  0  0  0  0  0  0  0  0  0
    0.8233   -3.2113   30.3493 C   0  0  0  0  0  0  0  0  0  0  0  0
    1.7082   -4.0994   31.2291 C   0  0  0  0  0  0  0  0  0  0  0  0
    1.1550   -4.3512   32.6611 C   0  0  0  0  0  0  0  0  0  0  0  0
    1.9991   -5.2609   33.4489 N   0  0  0  0  0  0  0  0  0  0  0  0
    1.2217   -6.4347   33.7969 C   0  0  0  0  0  0  0  0  0  0  0  0
    2.0139   -7.3740   35.1208 S   0  0  0  0  0  0  0  0  0  0  0  0
    1.3810   -6.6931   36.5764 C   0  0  0  0  0  0  0  0  0  0  0  0
    1.1799   -5.4143   36.8134 N   0  0  0  0  0  0  0  0  0  0  0  0
    0.6469   -5.3282   38.0844 N   0  0  0  0  0  0  0  0  0  0  0  0
    0.5953   -6.5598   38.5558 C   0  0  0  0  0  0  0  0  0  0  0  0
    0.1026   -6.9048   39.8462 C   0  0  0  0  0  0  0  0  0  0  0  0
    0.1099   -8.1185   40.5050 C   0  0  0  0  0  0  0  0  0  0  0  0
   -0.5169   -7.9266   41.7609 C   0  0  0  0  0  0  0  0  0  0  0  0
   -0.8988   -6.6053   41.8304 C   0  0  0  0  0  0  0  0  0  0  0  0
   -0.5228   -5.9936   40.6613 N   0  0  0  0  0  0  0  0  0  0  0  0
    1.0642   -7.4744   37.6525 O   0  0  0  0  0  0  0  0  0  0  0  0
    1.3050   -7.2078   32.5831 N   0  0  0  0  0  0  0  0  0  0  0  0
    0.1215   -7.8942   32.0755 C   0  0  0  0  0  0  0  0  0  0  0  0
   -1.0437   -7.0807   32.2222 N   0  0  0  0  0  0  0  0  0  0  0  0
   -0.7432   -5.7677   31.6573 C   0  0  0  0  0  0  0  0  0  0  0  0
   -0.2631   -4.9087   32.8073 C   0  0  0  0  0  0  0  0  0  0  0  0
   -0.1639   -5.8816   33.9816 C   0  0  0  0  0  0  0  0  0  0  0  0
   -1.1470   -6.9595   33.6833 C   0  0  0  0  0  0  0  0  0  0  0  0
   -2.1795   -1.1012   28.7100 C   0  0  0  0  0  0  0  0  0  0  0  0
   -2.4037   -0.3258   27.6258 N   0  0  0  0  0  0  0  0  0  0  0  0
   -2.4823    2.5613   26.7791 H   0  0  0  0  0  0  0  0  0  0  0  0
   -2.8405    1.1510   25.9688 H   0  0  0  0  0  0  0  0  0  0  0  0
   -0.4113    2.2669   28.4249 H   0  0  0  0  0  0  0  0  0  0  0  0
   -0.0401    0.8592   30.4449 H   0  0  0  0  0  0  0  0  0  0  0  0
    0.9819   -1.5564   31.7250 H   0  0  0  0  0  0  0  0  0  0  0  0
    1.4153   -2.8060   29.5219 H   0  0  0  0  0  0  0  0  0  0  0  0
    0.0049   -3.7816   29.9045 H   0  0  0  0  0  0  0  0  0  0  0  0
    2.6805   -3.5991   31.3452 H   0  0  0  0  0  0  0  0  0  0  0  0
    1.9305   -5.0219   30.6844 H   0  0  0  0  0  0  0  0  0  0  0  0
    1.1955   -3.4001   33.2074 H   0  0  0  0  0  0  0  0  0  0  0  0
    2.8997   -5.4920   33.0543 H   0  0  0  0  0  0  0  0  0  0  0  0
    0.5165   -9.0445   40.1148 H   0  0  0  0  0  0  0  0  0  0  0  0
   -0.6800   -8.6737   42.5267 H   0  0  0  0  0  0  0  0  0  0  0  0
   -1.4129   -6.0479   42.6021 H   0  0  0  0  0  0  0  0  0  0  0  0
   -0.6987   -5.0268   40.4140 H   0  0  0  0  0  0  0  0  0  0  0  0
    1.6155   -6.5822   31.8626 H   0  0  0  0  0  0  0  0  0  0  0  0
    0.2521   -8.1519   31.0174 H   0  0  0  0  0  0  0  0  0  0  0  0
   -0.0733   -8.8354   32.5775 H   0  0  0  0  0  0  0  0  0  0  0  0
   -1.5814   -5.2702   31.2094 H   0  0  0  0  0  0  0  0  0  0  0  0
   -0.0673   -5.8519   30.8006 H   0  0  0  0  0  0  0  0  0  0  0  0
   -0.9838   -4.1200   33.0422 H   0  0  0  0  0  0  0  0  0  0  0  0
   -0.3490   -5.3669   34.9264 H   0  0  0  0  0  0  0  0  0  0  0  0
   -0.9591   -7.8888   34.2373 H   0  0  0  0  0  0  0  0  0  0  0  0
   -2.1215   -6.6894   33.9990 H   0  0  0  0  0  0  0  0  0  0  0  0
   -2.7241   -2.0393   28.7176 H   0  0  0  0  0  0  0  0  0  0  0  0
  1  2  1  0
  2  3  2  0
  3  4  1  0
  4  5  2  0
  5  6  1  0
  6  7  2  0
  6  8  2  0
  6  9  1  0
  9 10  1  0
 10 11  1  0
 11 12  1  0
 12 13  1  0
 13 14  1  0
 14 15  1  0
 15 16  1  0
 16 17  2  0
 17 18  1  0
 18 19  2  0
 19 20  1  0
 20 21  2  0
 21 22  1  0
 22 23  2  0
 23 24  1  0
 19 25  1  0
 14 26  1  0
 26 27  1  0
 27 28  1  0
 28 29  1  0
 29 30  1  0
 30 31  1  0
 31 32  1  0
  5 33  1  0
 33 34  2  0
 34  2  1  0
 30 12  1  0
 31 14  1  0
 25 16  1  0
 32 28  1  0
 24 20  1  0
  1 35  1  0
  1 36  1  0
  3 37  1  0
  4 38  1  0
  9 39  1  0
 10 40  1  0
 10 41  1  0
 11 42  1  0
 11 43  1  0
 12 44  1  0
 13 45  1  0
 21 46  1  0
 22 47  1  0
 23 48  1  0
 24 49  1  0
 26 50  1  0
 27 51  1  0
 27 52  1  0
 29 53  1  0
 29 54  1  0
 30 55  1  0
 31 56  1  0
 32 57  1  0
 32 58  1  0
 33 59  1  0
M  END
>  <Energy>  (129) 
-200.21126522394906

>  <compound_id>  (129) 
249

>  <target_id>  (129) 
1

>  <reference_id>  (129) 
199

>  <inspiration_ids>  (129) 
[199, 142]

>  <energy_score>  (129) 
-47.6596466206322

>  <distance_score>  (129) 
1.7071421363597463

>  <path>  (129) 
/opt/xchem-fragalysis-2/maxwin/BulkDock/SCRATCH/505737/C249-P199/C249-P199.minimised.mol

>  <scratch_subdir>  (129) 
/opt/xchem-fragalysis-2/maxwin/BulkDock/SCRATCH/505737/C249-P199

>  <fragmenstein_runtime>  (129) 
6.332441568374634

>  <fragmenstein_outcome>  (129) 
too moved

>  <fragmenstein_mode>  (129) 
expansion

>  <fragmenstein_error>  (129) 


$$$$
C249-P142
     RDKit          3D

 59 64  0  0  0  0  0  0  0  0999 V2000
   -2.0817    2.0231   26.2951 N   0  0  0  0  0  0  0  0  0  0  0  0
   -1.6824    1.2239   27.3588 C   0  0  0  0  0  0  0  0  0  0  0  0
   -0.9693    1.7544   28.4199 C   0  0  0  0  0  0  0  0  0  0  0  0
   -0.6958    0.9399   29.5120 C   0  0  0  0  0  0  0  0  0  0  0  0
   -1.1433   -0.3730   29.4889 C   0  0  0  0  0  0  0  0  0  0  0  0
   -1.0371   -1.3645   30.9129 S   0  0  0  0  0  0  0  0  0  0  0  0
   -1.9814   -2.4589   30.8248 O   0  0  0  0  0  0  0  0  0  0  0  0
   -1.0377   -0.5027   32.0758 O   0  0  0  0  0  0  0  0  0  0  0  0
    0.5311   -1.9309   30.7739 N   0  0  0  0  0  0  0  0  0  0  0  0
    0.8480   -3.0920   29.9571 C   0  0  0  0  0  0  0  0  0  0  0  0
    0.1543   -4.3383   30.4749 C   0  0  0  0  0  0  0  0  0  0  0  0
    0.0227   -4.3809   32.0134 C   0  0  0  0  0  0  0  0  0  0  0  0
    1.2839   -4.5916   32.7106 N   0  0  0  0  0  0  0  0  0  0  0  0
    1.0698   -5.5881   33.7459 C   0  0  0  0  0  0  0  0  0  0  0  0
    2.0098   -4.9712   35.1654 S   0  0  0  0  0  0  0  0  0  0  0  0
    1.6611   -6.1313   36.3822 C   0  0  0  0  0  0  0  0  0  0  0  0
    1.9640   -7.4077   36.2933 N   0  0  0  0  0  0  0  0  0  0  0  0
    1.5690   -7.9752   37.4839 N   0  0  0  0  0  0  0  0  0  0  0  0
    1.0351   -7.0143   38.2131 C   0  0  0  0  0  0  0  0  0  0  0  0
    0.4781   -7.2061   39.5084 C   0  0  0  0  0  0  0  0  0  0  0  0
    0.0081   -6.2905   40.4282 C   0  0  0  0  0  0  0  0  0  0  0  0
   -0.4552   -7.0158   41.5545 C   0  0  0  0  0  0  0  0  0  0  0  0
   -0.2635   -8.3530   41.2881 C   0  0  0  0  0  0  0  0  0  0  0  0
    0.3049   -8.4577   40.0445 N   0  0  0  0  0  0  0  0  0  0  0  0
    1.0747   -5.8054   37.5707 O   0  0  0  0  0  0  0  0  0  0  0  0
    1.6293   -6.7989   33.1703 N   0  0  0  0  0  0  0  0  0  0  0  0
    0.7282   -7.2665   32.1422 C   0  0  0  0  0  0  0  0  0  0  0  0
   -0.5920   -7.5588   32.6160 N   0  0  0  0  0  0  0  0  0  0  0  0
   -1.3864   -6.6032   31.8813 C   0  0  0  0  0  0  0  0  0  0  0  0
   -1.0510   -5.2957   32.6018 C   0  0  0  0  0  0  0  0  0  0  0  0
   -0.4489   -5.7172   33.9554 C   0  0  0  0  0  0  0  0  0  0  0  0
   -0.8262   -7.1797   34.0162 C   0  0  0  0  0  0  0  0  0  0  0  0
   -1.7440   -0.8580   28.3507 C   0  0  0  0  0  0  0  0  0  0  0  0
   -2.0232   -0.0697   27.2907 N   0  0  0  0  0  0  0  0  0  0  0  0
   -2.5981    2.8353   26.6270 H   0  0  0  0  0  0  0  0  0  0  0  0
   -2.6834    1.4422   25.7126 H   0  0  0  0  0  0  0  0  0  0  0  0
   -0.6773    2.7996   28.4187 H   0  0  0  0  0  0  0  0  0  0  0  0
   -0.1791    1.3452   30.3771 H   0  0  0  0  0  0  0  0  0  0  0  0
    1.0946   -1.7647   31.6109 H   0  0  0  0  0  0  0  0  0  0  0  0
    1.9341   -3.2353   29.9935 H   0  0  0  0  0  0  0  0  0  0  0  0
    0.5896   -2.9095   28.9091 H   0  0  0  0  0  0  0  0  0  0  0  0
    0.6850   -5.1925   30.0490 H   0  0  0  0  0  0  0  0  0  0  0  0
   -0.8421   -4.3833   30.0284 H   0  0  0  0  0  0  0  0  0  0  0  0
   -0.2800   -3.4044   32.3929 H   0  0  0  0  0  0  0  0  0  0  0  0
    2.0365   -4.9370   32.1255 H   0  0  0  0  0  0  0  0  0  0  0  0
   -0.0048   -5.2148   40.3034 H   0  0  0  0  0  0  0  0  0  0  0  0
   -0.8904   -6.6048   42.4567 H   0  0  0  0  0  0  0  0  0  0  0  0
   -0.4873   -9.2376   41.8685 H   0  0  0  0  0  0  0  0  0  0  0  0
    0.5270   -9.3212   39.5602 H   0  0  0  0  0  0  0  0  0  0  0  0
    1.6412   -7.4877   33.9202 H   0  0  0  0  0  0  0  0  0  0  0  0
    0.8241   -6.5819   31.3074 H   0  0  0  0  0  0  0  0  0  0  0  0
    0.8992   -8.1095   31.5188 H   0  0  0  0  0  0  0  0  0  0  0  0
   -2.3887   -6.9709   32.0098 H   0  0  0  0  0  0  0  0  0  0  0  0
   -1.2041   -6.6118   30.8031 H   0  0  0  0  0  0  0  0  0  0  0  0
   -1.9222   -4.6802   32.7661 H   0  0  0  0  0  0  0  0  0  0  0  0
   -0.8381   -5.1209   34.7866 H   0  0  0  0  0  0  0  0  0  0  0  0
   -1.8778   -7.3204   34.2897 H   0  0  0  0  0  0  0  0  0  0  0  0
   -0.2489   -7.7738   34.7302 H   0  0  0  0  0  0  0  0  0  0  0  0
   -2.0675   -1.8888   28.2445 H   0  0  0  0  0  0  0  0  0  0  0  0
  1  2  1  0
  2  3  2  0
  3  4  1  0
  4  5  2  0
  5  6  1  0
  6  7  2  0
  6  8  2  0
  6  9  1  0
  9 10  1  0
 10 11  1  0
 11 12  1  0
 12 13  1  0
 13 14  1  0
 14 15  1  0
 15 16  1  0
 16 17  2  0
 17 18  1  0
 18 19  2  0
 19 20  1  0
 20 21  2  0
 21 22  1  0
 22 23  2  0
 23 24  1  0
 19 25  1  0
 14 26  1  0
 26 27  1  0
 27 28  1  0
 28 29  1  0
 29 30  1  0
 30 31  1  0
 31 32  1  0
  5 33  1  0
 33 34  2  0
 34  2  1  0
 30 12  1  0
 31 14  1  0
 25 16  1  0
 32 28  1  0
 24 20  1  0
  1 35  1  0
  1 36  1  0
  3 37  1  0
  4 38  1  0
  9 39  1  0
 10 40  1  0
 10 41  1  0
 11 42  1  0
 11 43  1  0
 12 44  1  0
 13 45  1  0
 21 46  1  0
 22 47  1  0
 23 48  1  0
 24 49  1  0
 26 50  1  0
 27 51  1  0
 27 52  1  0
 29 53  1  0
 29 54  1  0
 30 55  1  0
 31 56  1  0
 32 57  1  0
 32 58  1  0
 33 59  1  0
M  END
>  <Energy>  (130) 
-183.15392597154707

>  <compound_id>  (130) 
249

>  <target_id>  (130) 
1

>  <reference_id>  (130) 
142

>  <inspiration_ids>  (130) 
[199, 142]

>  <energy_score>  (130) 
-30.602307368230697

>  <distance_score>  (130) 
1.5392044696888023

>  <path>  (130) 
/opt/xchem-fragalysis-2/maxwin/BulkDock/SCRATCH/505737/C249-P142/C249-P142.minimised.mol

>  <scratch_subdir>  (130) 
/opt/xchem-fragalysis-2/maxwin/BulkDock/SCRATCH/505737/C249-P142

>  <fragmenstein_runtime>  (130) 
5.243992805480957

>  <fragmenstein_outcome>  (130) 
too moved

>  <fragmenstein_mode>  (130) 
expansion

>  <fragmenstein_error>  (130) 


$$$$
C250-P199
     RDKit          3D

 49 53  0  0  0  0  0  0  0  0999 V2000
   -2.1461    1.6573   26.6181 N   0  0  0  0  0  0  0  0  0  0  0  0
   -1.8133    0.8312   27.6862 C   0  0  0  0  0  0  0  0  0  0  0  0
   -0.8972    1.2366   28.6429 C   0  0  0  0  0  0  0  0  0  0  0  0
   -0.6260    0.3891   29.7141 C   0  0  0  0  0  0  0  0  0  0  0  0
   -1.2632   -0.8483   29.7663 C   0  0  0  0  0  0  0  0  0  0  0  0
   -0.9424   -1.9535   31.0809 S   0  0  0  0  0  0  0  0  0  0  0  0
   -1.8951   -3.0416   31.0861 O   0  0  0  0  0  0  0  0  0  0  0  0
   -0.6923   -1.1702   32.2699 O   0  0  0  0  0  0  0  0  0  0  0  0
    0.5653   -2.5786   30.6215 N   0  0  0  0  0  0  0  0  0  0  0  0
    0.6041   -3.4836   29.4380 C   0  0  0  0  0  0  0  0  0  0  0  0
    1.5108   -4.6637   29.7699 C   0  0  0  0  0  0  0  0  0  0  0  0
    0.8570   -5.4486   30.8753 C   0  0  0  0  0  0  0  0  0  0  0  0
    0.3086   -6.5926   30.6206 N   0  0  0  0  0  0  0  0  0  0  0  0
   -0.3465   -7.1725   31.6669 C   0  0  0  0  0  0  0  0  0  0  0  0
   -1.0292   -8.2763   31.5952 N   0  0  0  0  0  0  0  0  0  0  0  0
   -1.5887   -8.4904   32.9153 N   0  0  0  0  0  0  0  0  0  0  0  0
   -1.2140   -7.5288   33.7060 C   0  0  0  0  0  0  0  0  0  0  0  0
   -0.4265   -6.5646   32.9858 C   0  0  0  0  0  0  0  0  0  0  0  0
    0.1258   -5.3667   33.1635 C   0  0  0  0  0  0  0  0  0  0  0  0
   -0.0623   -4.4322   34.6244 S   0  0  0  0  0  0  0  0  0  0  0  0
    0.7160   -5.5425   35.6880 C   0  0  0  0  0  0  0  0  0  0  0  0
    1.5798   -6.4552   35.2926 N   0  0  0  0  0  0  0  0  0  0  0  0
    1.8844   -7.2054   36.3956 N   0  0  0  0  0  0  0  0  0  0  0  0
    1.1982   -6.6909   37.3995 C   0  0  0  0  0  0  0  0  0  0  0  0
    1.2310   -7.2070   38.7188 C   0  0  0  0  0  0  0  0  0  0  0  0
    0.4865   -6.8655   39.8275 C   0  0  0  0  0  0  0  0  0  0  0  0
    0.9058   -7.7035   40.8892 C   0  0  0  0  0  0  0  0  0  0  0  0
    1.9025   -8.5208   40.4022 C   0  0  0  0  0  0  0  0  0  0  0  0
    2.0751   -8.2271   39.0761 N   0  0  0  0  0  0  0  0  0  0  0  0
    0.4422   -5.6147   37.0194 O   0  0  0  0  0  0  0  0  0  0  0  0
    0.8404   -4.8613   32.1076 N   0  0  0  0  0  0  0  0  0  0  0  0
   -2.1441   -1.1882   28.7674 C   0  0  0  0  0  0  0  0  0  0  0  0
   -2.4248   -0.3605   27.7363 N   0  0  0  0  0  0  0  0  0  0  0  0
   -2.5122    2.5481   26.9433 H   0  0  0  0  0  0  0  0  0  0  0  0
   -2.8662    1.1563   26.0962 H   0  0  0  0  0  0  0  0  0  0  0  0
   -0.4143    2.2052   28.5627 H   0  0  0  0  0  0  0  0  0  0  0  0
    0.0715    0.7013   30.4864 H   0  0  0  0  0  0  0  0  0  0  0  0
    1.2796   -1.8450   30.6103 H   0  0  0  0  0  0  0  0  0  0  0  0
    1.0061   -2.9240   28.5876 H   0  0  0  0  0  0  0  0  0  0  0  0
   -0.3951   -3.8435   29.1728 H   0  0  0  0  0  0  0  0  0  0  0  0
    2.4924   -4.3179   30.1147 H   0  0  0  0  0  0  0  0  0  0  0  0
    1.6715   -5.2984   28.8975 H   0  0  0  0  0  0  0  0  0  0  0  0
   -1.4665   -7.4203   34.7671 H   0  0  0  0  0  0  0  0  0  0  0  0
   -0.2819   -6.1029   39.8691 H   0  0  0  0  0  0  0  0  0  0  0  0
    0.5246   -7.7080   41.9024 H   0  0  0  0  0  0  0  0  0  0  0  0
    2.4802   -9.3028   40.8761 H   0  0  0  0  0  0  0  0  0  0  0  0
    2.7015   -8.7056   38.4411 H   0  0  0  0  0  0  0  0  0  0  0  0
    1.0482   -3.8656   32.1694 H   0  0  0  0  0  0  0  0  0  0  0  0
   -2.6725   -2.1352   28.7469 H   0  0  0  0  0  0  0  0  0  0  0  0
  1  2  1  0
  2  3  2  0
  3  4  1  0
  4  5  2  0
  5  6  1  0
  6  7  2  0
  6  8  2  0
  6  9  1  0
  9 10  1  0
 10 11  1  0
 11 12  1  0
 12 13  2  0
 13 14  1  0
 14 15  2  0
 15 16  1  0
 16 17  2  0
 17 18  1  0
 18 19  2  0
 19 20  1  0
 20 21  1  0
 21 22  2  0
 22 23  1  0
 23 24  2  0
 24 25  1  0
 25 26  2  0
 26 27  1  0
 27 28  2  0
 28 29  1  0
 24 30  1  0
 19 31  1  0
  5 32  1  0
 32 33  2  0
 33  2  1  0
 31 12  1  0
 18 14  1  0
 30 21  1  0
 29 25  1  0
  1 34  1  0
  1 35  1  0
  3 36  1  0
  4 37  1  0
  9 38  1  0
 10 39  1  0
 10 40  1  0
 11 41  1  0
 11 42  1  0
 17 43  1  0
 26 44  1  0
 27 45  1  0
 28 46  1  0
 29 47  1  0
 31 48  1  0
 32 49  1  0
M  END
>  <Energy>  (131) 
-96.419943866417697

>  <compound_id>  (131) 
250

>  <target_id>  (131) 
1

>  <reference_id>  (131) 
199

>  <inspiration_ids>  (131) 
[199, 144]

>  <energy_score>  (131) 
-114.00160674080684

>  <distance_score>  (131) 
1.549772080809467

>  <path>  (131) 
/opt/xchem-fragalysis-2/maxwin/BulkDock/SCRATCH/505737/C250-P199/C250-P199.minimised.mol

>  <scratch_subdir>  (131) 
/opt/xchem-fragalysis-2/maxwin/BulkDock/SCRATCH/505737/C250-P199

>  <fragmenstein_runtime>  (131) 
6.170850515365601

>  <fragmenstein_outcome>  (131) 
too moved

>  <fragmenstein_mode>  (131) 
expansion

>  <fragmenstein_error>  (131) 


$$$$
C250-P144
     RDKit          3D

 49 53  0  0  0  0  0  0  0  0999 V2000
   -1.5143    1.6897   26.4661 N   0  0  0  0  0  0  0  0  0  0  0  0
   -1.1789    0.8423   27.5136 C   0  0  0  0  0  0  0  0  0  0  0  0
   -0.4234    1.2786   28.5853 C   0  0  0  0  0  0  0  0  0  0  0  0
   -0.2985    0.4549   29.7017 C   0  0  0  0  0  0  0  0  0  0  0  0
   -0.8662   -0.8121   29.6549 C   0  0  0  0  0  0  0  0  0  0  0  0
   -0.7828   -1.8976   31.0178 S   0  0  0  0  0  0  0  0  0  0  0  0
   -1.8644   -2.8574   30.9870 O   0  0  0  0  0  0  0  0  0  0  0  0
   -0.5070   -1.1193   32.2044 O   0  0  0  0  0  0  0  0  0  0  0  0
    0.6601   -2.7024   30.6578 N   0  0  0  0  0  0  0  0  0  0  0  0
    0.6350   -3.6607   29.5162 C   0  0  0  0  0  0  0  0  0  0  0  0
    1.3872   -4.9023   29.9530 C   0  0  0  0  0  0  0  0  0  0  0  0
    0.6096   -5.5597   31.0643 C   0  0  0  0  0  0  0  0  0  0  0  0
   -0.0125   -6.6784   30.8609 N   0  0  0  0  0  0  0  0  0  0  0  0
   -0.7011   -7.1708   31.9347 C   0  0  0  0  0  0  0  0  0  0  0  0
   -1.4126   -8.2605   31.9463 N   0  0  0  0  0  0  0  0  0  0  0  0
   -1.9490   -8.3933   33.3019 N   0  0  0  0  0  0  0  0  0  0  0  0
   -1.5374   -7.3894   34.0132 C   0  0  0  0  0  0  0  0  0  0  0  0
   -0.7430   -6.4926   33.2179 C   0  0  0  0  0  0  0  0  0  0  0  0
   -0.1383   -5.3139   33.3344 C   0  0  0  0  0  0  0  0  0  0  0  0
   -0.2417   -4.3423   34.7782 S   0  0  0  0  0  0  0  0  0  0  0  0
    0.6338   -5.4334   35.7884 C   0  0  0  0  0  0  0  0  0  0  0  0
    1.5207   -6.2980   35.3377 N   0  0  0  0  0  0  0  0  0  0  0  0
    1.8854   -7.0717   36.4061 N   0  0  0  0  0  0  0  0  0  0  0  0
    1.2061   -6.6202   37.4445 C   0  0  0  0  0  0  0  0  0  0  0  0
    1.2894   -7.1802   38.7430 C   0  0  0  0  0  0  0  0  0  0  0  0
    0.5098   -6.9585   39.8579 C   0  0  0  0  0  0  0  0  0  0  0  0
    1.0081   -7.7897   40.8901 C   0  0  0  0  0  0  0  0  0  0  0  0
    2.0879   -8.4792   40.3817 C   0  0  0  0  0  0  0  0  0  0  0  0
    2.2351   -8.1181   39.0691 N   0  0  0  0  0  0  0  0  0  0  0  0
    0.3965   -5.5645   37.1213 O   0  0  0  0  0  0  0  0  0  0  0  0
    0.5946   -4.8972   32.2566 N   0  0  0  0  0  0  0  0  0  0  0  0
   -1.4788   -1.2202   28.4964 C   0  0  0  0  0  0  0  0  0  0  0  0
   -1.6621   -0.4006   27.4448 N   0  0  0  0  0  0  0  0  0  0  0  0
   -2.0129    2.5112   26.8076 H   0  0  0  0  0  0  0  0  0  0  0  0
   -2.1354    1.1403   25.8711 H   0  0  0  0  0  0  0  0  0  0  0  0
    0.0233    2.2671   28.5628 H   0  0  0  0  0  0  0  0  0  0  0  0
    0.2356    0.8071   30.5794 H   0  0  0  0  0  0  0  0  0  0  0  0
    1.4493   -2.0495   30.6324 H   0  0  0  0  0  0  0  0  0  0  0  0
    1.1272   -3.1959   28.6560 H   0  0  0  0  0  0  0  0  0  0  0  0
   -0.3852   -3.9319   29.2302 H   0  0  0  0  0  0  0  0  0  0  0  0
    2.3784   -4.6226   30.3262 H   0  0  0  0  0  0  0  0  0  0  0  0
    1.5316   -5.6032   29.1357 H   0  0  0  0  0  0  0  0  0  0  0  0
   -1.7508   -7.2073   35.0715 H   0  0  0  0  0  0  0  0  0  0  0  0
   -0.3338   -6.2818   39.9229 H   0  0  0  0  0  0  0  0  0  0  0  0
    0.6247   -7.8716   41.8993 H   0  0  0  0  0  0  0  0  0  0  0  0
    2.7458   -9.2086   40.8342 H   0  0  0  0  0  0  0  0  0  0  0  0
    2.9187   -8.4938   38.4240 H   0  0  0  0  0  0  0  0  0  0  0  0
    0.8995   -3.9256   32.2808 H   0  0  0  0  0  0  0  0  0  0  0  0
   -1.8851   -2.2166   28.3656 H   0  0  0  0  0  0  0  0  0  0  0  0
  1  2  1  0
  2  3  2  0
  3  4  1  0
  4  5  2  0
  5  6  1  0
  6  7  2  0
  6  8  2  0
  6  9  1  0
  9 10  1  0
 10 11  1  0
 11 12  1  0
 12 13  2  0
 13 14  1  0
 14 15  2  0
 15 16  1  0
 16 17  2  0
 17 18  1  0
 18 19  2  0
 19 20  1  0
 20 21  1  0
 21 22  2  0
 22 23  1  0
 23 24  2  0
 24 25  1  0
 25 26  2  0
 26 27  1  0
 27 28  2  0
 28 29  1  0
 24 30  1  0
 19 31  1  0
  5 32  1  0
 32 33  2  0
 33  2  1  0
 31 12  1  0
 18 14  1  0
 30 21  1  0
 29 25  1  0
  1 34  1  0
  1 35  1  0
  3 36  1  0
  4 37  1  0
  9 38  1  0
 10 39  1  0
 10 40  1  0
 11 41  1  0
 11 42  1  0
 17 43  1  0
 26 44  1  0
 27 45  1  0
 28 46  1  0
 29 47  1  0
 31 48  1  0
 32 49  1  0
M  END
>  <Energy>  (132) 
-93.577314475455225

>  <compound_id>  (132) 
250

>  <target_id>  (132) 
1

>  <reference_id>  (132) 
144

>  <inspiration_ids>  (132) 
[199, 144]

>  <energy_score>  (132) 
-111.1589773498439

>  <distance_score>  (132) 
1.532615909564952

>  <path>  (132) 
/opt/xchem-fragalysis-2/maxwin/BulkDock/SCRATCH/505737/C250-P144/C250-P144.minimised.mol

>  <scratch_subdir>  (132) 
/opt/xchem-fragalysis-2/maxwin/BulkDock/SCRATCH/505737/C250-P144

>  <fragmenstein_runtime>  (132) 
5.307943344116211

>  <fragmenstein_outcome>  (132) 
too moved

>  <fragmenstein_mode>  (132) 
expansion

>  <fragmenstein_error>  (132) 


$$$$
C224-P199
     RDKit          3D

 53 57  0  0  0  0  0  0  0  0999 V2000
   -2.0452    1.6089   26.7419 N   0  0  0  0  0  0  0  0  0  0  0  0
   -1.7394    0.7508   27.7953 C   0  0  0  0  0  0  0  0  0  0  0  0
   -0.8103    1.1039   28.7623 C   0  0  0  0  0  0  0  0  0  0  0  0
   -0.5802    0.2319   29.8258 C   0  0  0  0  0  0  0  0  0  0  0  0
   -1.2724   -0.9749   29.8627 C   0  0  0  0  0  0  0  0  0  0  0  0
   -1.0569   -2.1003   31.1889 S   0  0  0  0  0  0  0  0  0  0  0  0
   -2.0499   -3.1530   31.1204 O   0  0  0  0  0  0  0  0  0  0  0  0
   -0.8865   -1.3137   32.3905 O   0  0  0  0  0  0  0  0  0  0  0  0
    0.4304   -2.7627   30.8216 N   0  0  0  0  0  0  0  0  0  0  0  0
    0.5640   -3.7565   29.7517 C   0  0  0  0  0  0  0  0  0  0  0  0
    1.3656   -4.9505   30.2512 C   0  0  0  0  0  0  0  0  0  0  0  0
    0.5914   -5.6612   31.3219 C   0  0  0  0  0  0  0  0  0  0  0  0
    0.4497   -5.1595   32.5091 N   0  0  0  0  0  0  0  0  0  0  0  0
   -0.2620   -5.8868   33.4493 C   0  0  0  0  0  0  0  0  0  0  0  0
   -0.2205   -5.4705   34.7700 N   0  0  0  0  0  0  0  0  0  0  0  0
    0.7707   -5.9782   35.5303 C   0  0  0  0  0  0  0  0  0  0  0  0
    1.8818   -6.5527   35.1245 N   0  0  0  0  0  0  0  0  0  0  0  0
    2.4626   -7.1472   36.2001 N   0  0  0  0  0  0  0  0  0  0  0  0
    1.7076   -6.9191   37.2587 C   0  0  0  0  0  0  0  0  0  0  0  0
    1.9105   -7.5037   38.5755 C   0  0  0  0  0  0  0  0  0  0  0  0
    0.9276   -7.4815   39.5717 C   0  0  0  0  0  0  0  0  0  0  0  0
    1.1461   -8.1317   40.7881 C   0  0  0  0  0  0  0  0  0  0  0  0
    2.3465   -8.8011   41.0213 C   0  0  0  0  0  0  0  0  0  0  0  0
    3.3359   -8.8197   40.0437 C   0  0  0  0  0  0  0  0  0  0  0  0
    3.1176   -8.1745   38.8289 C   0  0  0  0  0  0  0  0  0  0  0  0
    0.6751   -6.0947   36.8844 N   0  0  0  0  0  0  0  0  0  0  0  0
   -0.8780   -7.0600   33.1544 C   0  0  0  0  0  0  0  0  0  0  0  0
   -0.7411   -7.6007   31.8658 C   0  0  0  0  0  0  0  0  0  0  0  0
   -1.1050   -8.7252   31.2936 N   0  0  0  0  0  0  0  0  0  0  0  0
   -0.3989   -8.6970   30.1276 C   0  0  0  0  0  0  0  0  0  0  0  0
    0.1976   -7.5406   29.8454 N   0  0  0  0  0  0  0  0  0  0  0  0
    0.0167   -6.8735   30.9941 N   0  0  0  0  0  0  0  0  0  0  0  0
   -2.1574   -1.2625   28.8494 C   0  0  0  0  0  0  0  0  0  0  0  0
   -2.4015   -0.4143   27.8237 N   0  0  0  0  0  0  0  0  0  0  0  0
   -2.7817    1.1358   26.2178 H   0  0  0  0  0  0  0  0  0  0  0  0
   -2.3886    2.4988   27.0933 H   0  0  0  0  0  0  0  0  0  0  0  0
   -0.2819    2.0492   28.6968 H   0  0  0  0  0  0  0  0  0  0  0  0
    0.1310    0.4942   30.6042 H   0  0  0  0  0  0  0  0  0  0  0  0
    1.0680   -2.7877   31.6214 H   0  0  0  0  0  0  0  0  0  0  0  0
   -0.4107   -4.0767   29.3704 H   0  0  0  0  0  0  0  0  0  0  0  0
    1.0988   -3.2827   28.9213 H   0  0  0  0  0  0  0  0  0  0  0  0
    1.6312   -5.6052   29.4191 H   0  0  0  0  0  0  0  0  0  0  0  0
    2.3093   -4.6077   30.6937 H   0  0  0  0  0  0  0  0  0  0  0  0
   -1.1565   -5.3611   35.1541 H   0  0  0  0  0  0  0  0  0  0  0  0
   -0.0287   -6.9928   39.4178 H   0  0  0  0  0  0  0  0  0  0  0  0
    0.3740   -8.1257   41.5533 H   0  0  0  0  0  0  0  0  0  0  0  0
    2.5094   -9.3086   41.9686 H   0  0  0  0  0  0  0  0  0  0  0  0
    4.2725   -9.3404   40.2223 H   0  0  0  0  0  0  0  0  0  0  0  0
    3.8937   -8.2119   38.0662 H   0  0  0  0  0  0  0  0  0  0  0  0
   -0.0772   -5.7657   37.4655 H   0  0  0  0  0  0  0  0  0  0  0  0
   -1.3662   -7.6618   33.9134 H   0  0  0  0  0  0  0  0  0  0  0  0
   -0.3484   -9.5294   29.4420 H   0  0  0  0  0  0  0  0  0  0  0  0
   -2.7277   -2.1837   28.8185 H   0  0  0  0  0  0  0  0  0  0  0  0
  1  2  1  0
  2  3  2  0
  3  4  1  0
  4  5  2  0
  5  6  1  0
  6  7  2  0
  6  8  2  0
  6  9  1  0
  9 10  1  0
 10 11  1  0
 11 12  1  0
 12 13  2  0
 13 14  1  0
 14 15  1  0
 15 16  1  0
 16 17  2  0
 17 18  1  0
 18 19  2  0
 19 20  1  0
 20 21  2  0
 21 22  1  0
 22 23  2  0
 23 24  1  0
 24 25  2  0
 19 26  1  0
 14 27  2  0
 27 28  1  0
 28 29  2  0
 29 30  1  0
 30 31  2  0
 31 32  1  0
  5 33  1  0
 33 34  2  0
 34  2  1  0
 32 12  1  0
 26 16  1  0
 32 28  1  0
 25 20  1  0
  1 35  1  0
  1 36  1  0
  3 37  1  0
  4 38  1  0
  9 39  1  0
 10 40  1  0
 10 41  1  0
 11 42  1  0
 11 43  1  0
 15 44  1  0
 21 45  1  0
 22 46  1  0
 23 47  1  0
 24 48  1  0
 25 49  1  0
 26 50  1  0
 27 51  1  0
 30 52  1  0
 33 53  1  0
M  END
>  <Energy>  (133) 
-62.15163034534401

>  <compound_id>  (133) 
224

>  <target_id>  (133) 
1

>  <reference_id>  (133) 
199

>  <inspiration_ids>  (133) 
[199, 145]

>  <energy_score>  (133) 
-40.150997744034

>  <distance_score>  (133) 
0.8704835739940063

>  <path>  (133) 
/opt/xchem-fragalysis-2/maxwin/BulkDock/SCRATCH/505737/C224-P199/C224-P199.minimised.mol

>  <scratch_subdir>  (133) 
/opt/xchem-fragalysis-2/maxwin/BulkDock/SCRATCH/505737/C224-P199

>  <fragmenstein_runtime>  (133) 
9.20516037940979

>  <fragmenstein_outcome>  (133) 
acceptable

>  <fragmenstein_mode>  (133) 
expansion

>  <fragmenstein_error>  (133) 


$$$$
C224-P145
     RDKit          3D

 53 57  0  0  0  0  0  0  0  0999 V2000
   -1.6868    1.9887   26.7221 N   0  0  0  0  0  0  0  0  0  0  0  0
   -1.3574    1.0883   27.7356 C   0  0  0  0  0  0  0  0  0  0  0  0
   -0.8710    1.5505   28.9487 C   0  0  0  0  0  0  0  0  0  0  0  0
   -0.7833    0.6774   30.0318 C   0  0  0  0  0  0  0  0  0  0  0  0
   -1.1716   -0.6447   29.8559 C   0  0  0  0  0  0  0  0  0  0  0  0
   -1.1041   -1.7882   31.1796 S   0  0  0  0  0  0  0  0  0  0  0  0
   -2.1098   -2.8167   31.0222 O   0  0  0  0  0  0  0  0  0  0  0  0
   -0.9774   -1.0420   32.4122 O   0  0  0  0  0  0  0  0  0  0  0  0
    0.3758   -2.4646   30.8896 N   0  0  0  0  0  0  0  0  0  0  0  0
    0.5764   -3.4030   29.7956 C   0  0  0  0  0  0  0  0  0  0  0  0
    1.3272   -4.5817   30.3553 C   0  0  0  0  0  0  0  0  0  0  0  0
    0.4809   -5.3074   31.3653 C   0  0  0  0  0  0  0  0  0  0  0  0
    0.3651   -4.9216   32.6011 N   0  0  0  0  0  0  0  0  0  0  0  0
   -0.3282   -5.7476   33.4711 C   0  0  0  0  0  0  0  0  0  0  0  0
   -0.2452   -5.4730   34.8284 N   0  0  0  0  0  0  0  0  0  0  0  0
    0.6424   -6.2162   35.5245 C   0  0  0  0  0  0  0  0  0  0  0  0
    1.4496   -7.1485   35.0666 N   0  0  0  0  0  0  0  0  0  0  0  0
    2.0848   -7.7047   36.1284 N   0  0  0  0  0  0  0  0  0  0  0  0
    1.6233   -7.1394   37.2292 C   0  0  0  0  0  0  0  0  0  0  0  0
    1.9284   -7.5679   38.5817 C   0  0  0  0  0  0  0  0  0  0  0  0
    1.0413   -7.3629   39.6448 C   0  0  0  0  0  0  0  0  0  0  0  0
    1.3218   -7.9018   40.9005 C   0  0  0  0  0  0  0  0  0  0  0  0
    2.4898   -8.6352   41.1039 C   0  0  0  0  0  0  0  0  0  0  0  0
    3.3876   -8.8261   40.0582 C   0  0  0  0  0  0  0  0  0  0  0  0
    3.1069   -8.2951   38.8028 C   0  0  0  0  0  0  0  0  0  0  0  0
    0.7647   -6.1293   36.8769 N   0  0  0  0  0  0  0  0  0  0  0  0
   -0.9468   -6.8896   33.0763 C   0  0  0  0  0  0  0  0  0  0  0  0
   -0.8297   -7.2982   31.7406 C   0  0  0  0  0  0  0  0  0  0  0  0
   -1.0768   -8.4145   31.0958 N   0  0  0  0  0  0  0  0  0  0  0  0
   -0.3719   -8.2383   29.9342 C   0  0  0  0  0  0  0  0  0  0  0  0
    0.0224   -6.9901   29.7065 N   0  0  0  0  0  0  0  0  0  0  0  0
   -0.1417   -6.4545   30.9209 N   0  0  0  0  0  0  0  0  0  0  0  0
   -1.5880   -1.0469   28.6091 C   0  0  0  0  0  0  0  0  0  0  0  0
   -1.7064   -0.1923   27.5699 N   0  0  0  0  0  0  0  0  0  0  0  0
   -2.5664    2.4475   26.9582 H   0  0  0  0  0  0  0  0  0  0  0  0
   -0.9795    2.7071   26.6197 H   0  0  0  0  0  0  0  0  0  0  0  0
   -0.5801    2.5899   29.0542 H   0  0  0  0  0  0  0  0  0  0  0  0
   -0.4182    1.0359   30.9898 H   0  0  0  0  0  0  0  0  0  0  0  0
    1.1289   -2.2171   31.5299 H   0  0  0  0  0  0  0  0  0  0  0  0
   -0.3656   -3.7263   29.3435 H   0  0  0  0  0  0  0  0  0  0  0  0
    1.1732   -2.9121   29.0200 H   0  0  0  0  0  0  0  0  0  0  0  0
    1.6749   -5.2296   29.5488 H   0  0  0  0  0  0  0  0  0  0  0  0
    2.2233   -4.2163   30.8729 H   0  0  0  0  0  0  0  0  0  0  0  0
   -0.1186   -4.4660   34.9272 H   0  0  0  0  0  0  0  0  0  0  0  0
    0.1050   -6.8299   39.5125 H   0  0  0  0  0  0  0  0  0  0  0  0
    0.6204   -7.7693   41.7207 H   0  0  0  0  0  0  0  0  0  0  0  0
    2.6944   -9.0702   42.0793 H   0  0  0  0  0  0  0  0  0  0  0  0
    4.2911   -9.4089   40.2153 H   0  0  0  0  0  0  0  0  0  0  0  0
    3.7999   -8.4824   37.9848 H   0  0  0  0  0  0  0  0  0  0  0  0
    0.2387   -5.5345   37.4964 H   0  0  0  0  0  0  0  0  0  0  0  0
   -1.4184   -7.5602   33.7862 H   0  0  0  0  0  0  0  0  0  0  0  0
   -0.2020   -9.0324   29.2143 H   0  0  0  0  0  0  0  0  0  0  0  0
   -1.8746   -2.0681   28.3807 H   0  0  0  0  0  0  0  0  0  0  0  0
  1  2  1  0
  2  3  2  0
  3  4  1  0
  4  5  2  0
  5  6  1  0
  6  7  2  0
  6  8  2  0
  6  9  1  0
  9 10  1  0
 10 11  1  0
 11 12  1  0
 12 13  2  0
 13 14  1  0
 14 15  1  0
 15 16  1  0
 16 17  2  0
 17 18  1  0
 18 19  2  0
 19 20  1  0
 20 21  2  0
 21 22  1  0
 22 23  2  0
 23 24  1  0
 24 25  2  0
 19 26  1  0
 14 27  2  0
 27 28  1  0
 28 29  2  0
 29 30  1  0
 30 31  2  0
 31 32  1  0
  5 33  1  0
 33 34  2  0
 34  2  1  0
 32 12  1  0
 26 16  1  0
 32 28  1  0
 25 20  1  0
  1 35  1  0
  1 36  1  0
  3 37  1  0
  4 38  1  0
  9 39  1  0
 10 40  1  0
 10 41  1  0
 11 42  1  0
 11 43  1  0
 15 44  1  0
 21 45  1  0
 22 46  1  0
 23 47  1  0
 24 48  1  0
 25 49  1  0
 26 50  1  0
 27 51  1  0
 30 52  1  0
 33 53  1  0
M  END
>  <Energy>  (134) 
-51.975787623494661

>  <compound_id>  (134) 
224

>  <target_id>  (134) 
1

>  <reference_id>  (134) 
145

>  <inspiration_ids>  (134) 
[199, 145]

>  <energy_score>  (134) 
-29.975155022186158

>  <distance_score>  (134) 
1.0135808760904412

>  <path>  (134) 
/opt/xchem-fragalysis-2/maxwin/BulkDock/SCRATCH/505737/C224-P145/C224-P145.minimised.mol

>  <scratch_subdir>  (134) 
/opt/xchem-fragalysis-2/maxwin/BulkDock/SCRATCH/505737/C224-P145

>  <fragmenstein_runtime>  (134) 
9.274823188781738

>  <fragmenstein_outcome>  (134) 
too moved

>  <fragmenstein_mode>  (134) 
expansion

>  <fragmenstein_error>  (134) 


$$$$
C226-P199
     RDKit          3D

 69 73  0  0  0  0  0  0  0  0999 V2000
   -1.8537    1.4795   26.9185 N   0  0  0  0  0  0  0  0  0  0  0  0
   -1.5992    0.6054   27.9714 C   0  0  0  0  0  0  0  0  0  0  0  0
   -0.6929    0.9214   28.9735 C   0  0  0  0  0  0  0  0  0  0  0  0
   -0.5261    0.0352   30.0400 C   0  0  0  0  0  0  0  0  0  0  0  0
   -1.2607   -1.1466   30.0473 C   0  0  0  0  0  0  0  0  0  0  0  0
   -1.2276   -2.2319   31.4201 S   0  0  0  0  0  0  0  0  0  0  0  0
   -2.0394   -3.3959   31.1471 O   0  0  0  0  0  0  0  0  0  0  0  0
   -1.4690   -1.4268   32.5968 O   0  0  0  0  0  0  0  0  0  0  0  0
    0.3419   -2.7871   31.5587 N   0  0  0  0  0  0  0  0  0  0  0  0
    1.0414   -3.3968   30.4399 C   0  0  0  0  0  0  0  0  0  0  0  0
    0.7225   -4.8849   30.1753 C   0  0  0  0  0  0  0  0  0  0  0  0
    0.2735   -5.7765   31.3011 C   0  0  0  0  0  0  0  0  0  0  0  0
    0.4972   -5.4036   32.5751 N   0  0  0  0  0  0  0  0  0  0  0  0
   -0.0062   -6.2145   33.5321 C   0  0  0  0  0  0  0  0  0  0  0  0
   -0.7223   -7.3571   33.2670 C   0  0  0  0  0  0  0  0  0  0  0  0
   -0.8877   -7.6397   31.9368 C   0  0  0  0  0  0  0  0  0  0  0  0
   -1.6469   -8.6904   31.5132 O   0  0  0  0  0  0  0  0  0  0  0  0
   -0.3816   -6.8964   30.9433 N   0  0  0  0  0  0  0  0  0  0  0  0
    2.4728   -3.0697   30.5397 N   0  0  0  0  0  0  0  0  0  0  0  0
    3.2047   -3.5003   31.7490 C   0  0  0  0  0  0  0  0  0  0  0  0
    3.2297   -2.4800   32.9368 C   0  0  0  0  0  0  0  0  0  0  0  0
    2.0119   -2.4739   33.7551 N   0  0  0  0  0  0  0  0  0  0  0  0
    4.3826   -2.6751   33.8693 C   0  0  0  0  0  0  0  0  0  0  0  0
    5.2374   -1.6092   34.0154 O   0  0  0  0  0  0  0  0  0  0  0  0
    6.0901   -1.9884   35.0016 C   0  0  0  0  0  0  0  0  0  0  0  0
    5.8811   -3.1885   35.4926 N   0  0  0  0  0  0  0  0  0  0  0  0
    4.7924   -3.6519   34.7586 C   0  0  0  0  0  0  0  0  0  0  0  0
    4.2368   -4.9917   34.9505 C   0  0  0  0  0  0  0  0  0  0  0  0
    3.5574   -5.4932   34.1442 O   0  0  0  0  0  0  0  0  0  0  0  0
    4.7996   -5.5533   36.2762 N   0  0  0  0  0  0  0  0  0  0  0  0
    4.7263   -6.8101   36.8109 C   0  0  0  0  0  0  0  0  0  0  0  0
    4.3258   -7.8557   36.0706 C   0  0  0  0  0  0  0  0  0  0  0  0
    4.4668   -9.1466   36.4994 N   0  0  0  0  0  0  0  0  0  0  0  0
    4.9875   -9.5131   37.7176 C   0  0  0  0  0  0  0  0  0  0  0  0
    5.1403  -10.6912   38.0174 O   0  0  0  0  0  0  0  0  0  0  0  0
    5.3420   -8.4038   38.6338 C   0  0  0  0  0  0  0  0  0  0  0  0
    5.8006   -8.7002   39.9239 C   0  0  0  0  0  0  0  0  0  0  0  0
    6.1217   -7.6647   40.7974 C   0  0  0  0  0  0  0  0  0  0  0  0
    5.9793   -6.3418   40.3842 C   0  0  0  0  0  0  0  0  0  0  0  0
    5.5237   -6.0474   39.0934 C   0  0  0  0  0  0  0  0  0  0  0  0
    5.2079   -7.0746   38.1887 C   0  0  0  0  0  0  0  0  0  0  0  0
   -2.1190   -1.3972   28.9988 C   0  0  0  0  0  0  0  0  0  0  0  0
   -2.2977   -0.5370   27.9700 N   0  0  0  0  0  0  0  0  0  0  0  0
   -2.2037    2.3688   27.2623 H   0  0  0  0  0  0  0  0  0  0  0  0
   -2.5731    1.0154   26.3614 H   0  0  0  0  0  0  0  0  0  0  0  0
   -0.1362    1.8518   28.9353 H   0  0  0  0  0  0  0  0  0  0  0  0
    0.1531    0.2762   30.8535 H   0  0  0  0  0  0  0  0  0  0  0  0
    0.3323   -3.4663   32.3337 H   0  0  0  0  0  0  0  0  0  0  0  0
    0.7478   -2.8662   29.5263 H   0  0  0  0  0  0  0  0  0  0  0  0
    1.5697   -5.3686   29.6732 H   0  0  0  0  0  0  0  0  0  0  0  0
   -0.0968   -4.8918   29.4440 H   0  0  0  0  0  0  0  0  0  0  0  0
    0.1683   -5.8952   34.5570 H   0  0  0  0  0  0  0  0  0  0  0  0
   -1.1348   -7.9625   34.0628 H   0  0  0  0  0  0  0  0  0  0  0  0
   -2.1240   -9.0595   32.2817 H   0  0  0  0  0  0  0  0  0  0  0  0
    2.9441   -3.4491   29.7198 H   0  0  0  0  0  0  0  0  0  0  0  0
    2.8720   -4.4891   32.0665 H   0  0  0  0  0  0  0  0  0  0  0  0
    4.2467   -3.6417   31.4306 H   0  0  0  0  0  0  0  0  0  0  0  0
    3.3336   -1.4758   32.5035 H   0  0  0  0  0  0  0  0  0  0  0  0
    1.2774   -2.0469   33.1834 H   0  0  0  0  0  0  0  0  0  0  0  0
    1.7200   -3.4384   33.9155 H   0  0  0  0  0  0  0  0  0  0  0  0
    6.8490   -1.2720   35.2843 H   0  0  0  0  0  0  0  0  0  0  0  0
    5.4260   -4.8690   36.6965 H   0  0  0  0  0  0  0  0  0  0  0  0
    3.9720   -7.7500   35.0528 H   0  0  0  0  0  0  0  0  0  0  0  0
    4.2750   -9.9126   35.8682 H   0  0  0  0  0  0  0  0  0  0  0  0
    5.9014   -9.7342   40.2474 H   0  0  0  0  0  0  0  0  0  0  0  0
    6.4744   -7.8892   41.8012 H   0  0  0  0  0  0  0  0  0  0  0  0
    6.2182   -5.5326   41.0711 H   0  0  0  0  0  0  0  0  0  0  0  0
    5.4083   -5.0008   38.8243 H   0  0  0  0  0  0  0  0  0  0  0  0
   -2.7362   -2.2875   28.9491 H   0  0  0  0  0  0  0  0  0  0  0  0
  1  2  1  0
  2  3  2  0
  3  4  1  0
  4  5  2  0
  5  6  1  0
  6  7  2  0
  6  8  2  0
  6  9  1  0
  9 10  1  0
 10 11  1  0
 11 12  1  0
 12 13  2  0
 13 14  1  0
 14 15  2  0
 15 16  1  0
 16 17  1  0
 16 18  2  0
 10 19  1  0
 19 20  1  0
 20 21  1  0
 21 22  1  0
 21 23  1  0
 23 24  1  0
 24 25  1  0
 25 26  2  0
 26 27  1  0
 27 28  1  0
 28 29  2  0
 28 30  1  0
 30 31  1  0
 31 32  2  0
 32 33  1  0
 33 34  1  0
 34 35  2  0
 34 36  1  0
 36 37  2  0
 37 38  1  0
 38 39  2  0
 39 40  1  0
 40 41  2  0
  5 42  1  0
 42 43  2  0
 43  2  1  0
 18 12  1  0
 27 23  2  0
 41 31  1  0
 41 36  1  0
  1 44  1  0
  1 45  1  0
  3 46  1  0
  4 47  1  0
  9 48  1  0
 10 49  1  0
 11 50  1  0
 11 51  1  0
 14 52  1  0
 15 53  1  0
 17 54  1  0
 19 55  1  0
 20 56  1  0
 20 57  1  0
 21 58  1  0
 22 59  1  0
 22 60  1  0
 25 61  1  0
 30 62  1  0
 32 63  1  0
 33 64  1  0
 37 65  1  0
 38 66  1  0
 39 67  1  0
 40 68  1  0
 42 69  1  0
M  END
>  <Energy>  (135) 
-88.792803684507845

>  <compound_id>  (135) 
226

>  <target_id>  (135) 
1

>  <reference_id>  (135) 
199

>  <inspiration_ids>  (135) 
[199, 149]

>  <energy_score>  (135) 
-111.68870520624901

>  <distance_score>  (135) 
0.8516596170833577

>  <path>  (135) 
/opt/xchem-fragalysis-2/maxwin/BulkDock/SCRATCH/505737/C226-P199/C226-P199.minimised.mol

>  <scratch_subdir>  (135) 
/opt/xchem-fragalysis-2/maxwin/BulkDock/SCRATCH/505737/C226-P199

>  <fragmenstein_runtime>  (135) 
13.624016761779785

>  <fragmenstein_outcome>  (135) 
acceptable

>  <fragmenstein_mode>  (135) 
expansion

>  <fragmenstein_error>  (135) 


$$$$
C226-P149
     RDKit          3D

 69 73  0  0  0  0  0  0  0  0999 V2000
   -1.0689    1.8499   27.2063 N   0  0  0  0  0  0  0  0  0  0  0  0
   -0.8997    0.9135   28.2202 C   0  0  0  0  0  0  0  0  0  0  0  0
   -0.2999    1.2534   29.4226 C   0  0  0  0  0  0  0  0  0  0  0  0
   -0.2501    0.3041   30.4440 C   0  0  0  0  0  0  0  0  0  0  0  0
   -0.7662   -0.9660   30.2028 C   0  0  0  0  0  0  0  0  0  0  0  0
   -0.9362   -2.1347   31.5029 S   0  0  0  0  0  0  0  0  0  0  0  0
   -1.7948   -3.2148   31.0738 O   0  0  0  0  0  0  0  0  0  0  0  0
   -1.2425   -1.3828   32.7011 O   0  0  0  0  0  0  0  0  0  0  0  0
    0.6146   -2.7525   31.7167 N   0  0  0  0  0  0  0  0  0  0  0  0
    1.2290   -3.5043   30.6294 C   0  0  0  0  0  0  0  0  0  0  0  0
    0.7021   -4.9324   30.3832 C   0  0  0  0  0  0  0  0  0  0  0  0
    0.1499   -5.7473   31.5180 C   0  0  0  0  0  0  0  0  0  0  0  0
    0.3111   -5.3247   32.7836 N   0  0  0  0  0  0  0  0  0  0  0  0
   -0.2424   -6.0852   33.7517 C   0  0  0  0  0  0  0  0  0  0  0  0
   -0.9629   -7.2281   33.5024 C   0  0  0  0  0  0  0  0  0  0  0  0
   -1.0772   -7.5563   32.1773 C   0  0  0  0  0  0  0  0  0  0  0  0
   -1.8083   -8.6269   31.7622 O   0  0  0  0  0  0  0  0  0  0  0  0
   -0.5192   -6.8634   31.1766 N   0  0  0  0  0  0  0  0  0  0  0  0
    2.6854   -3.3893   30.7198 N   0  0  0  0  0  0  0  0  0  0  0  0
    3.3386   -3.9069   31.9365 C   0  0  0  0  0  0  0  0  0  0  0  0
    3.7534   -2.8215   32.9747 C   0  0  0  0  0  0  0  0  0  0  0  0
    2.6365   -2.3140   33.7705 N   0  0  0  0  0  0  0  0  0  0  0  0
    4.8657   -3.2786   33.8580 C   0  0  0  0  0  0  0  0  0  0  0  0
    6.0289   -2.5506   33.7480 O   0  0  0  0  0  0  0  0  0  0  0  0
    6.8807   -3.1167   34.6369 C   0  0  0  0  0  0  0  0  0  0  0  0
    6.3897   -4.1321   35.3051 N   0  0  0  0  0  0  0  0  0  0  0  0
    5.0840   -4.2559   34.8141 C   0  0  0  0  0  0  0  0  0  0  0  0
    4.1829   -5.2997   35.3348 C   0  0  0  0  0  0  0  0  0  0  0  0
    3.0808   -5.4564   34.8964 O   0  0  0  0  0  0  0  0  0  0  0  0
    4.8746   -5.9736   36.4033 N   0  0  0  0  0  0  0  0  0  0  0  0
    4.5123   -7.0496   37.1732 C   0  0  0  0  0  0  0  0  0  0  0  0
    3.2857   -7.5972   37.1339 C   0  0  0  0  0  0  0  0  0  0  0  0
    2.9339   -8.6710   37.9108 N   0  0  0  0  0  0  0  0  0  0  0  0
    3.7845   -9.3293   38.7656 C   0  0  0  0  0  0  0  0  0  0  0  0
    3.4419  -10.3301   39.3863 O   0  0  0  0  0  0  0  0  0  0  0  0
    5.1488   -8.7642   38.8857 C   0  0  0  0  0  0  0  0  0  0  0  0
    6.0525   -9.3682   39.7730 C   0  0  0  0  0  0  0  0  0  0  0  0
    7.3400   -8.8593   39.9057 C   0  0  0  0  0  0  0  0  0  0  0  0
    7.7222   -7.7543   39.1519 C   0  0  0  0  0  0  0  0  0  0  0  0
    6.8195   -7.1534   38.2642 C   0  0  0  0  0  0  0  0  0  0  0  0
    5.5088   -7.6427   38.1130 C   0  0  0  0  0  0  0  0  0  0  0  0
   -1.2751   -1.2461   28.9518 C   0  0  0  0  0  0  0  0  0  0  0  0
   -1.3530   -0.3208   27.9687 N   0  0  0  0  0  0  0  0  0  0  0  0
   -1.5947    2.6547   27.5407 H   0  0  0  0  0  0  0  0  0  0  0  0
   -1.6065    1.3684   26.4854 H   0  0  0  0  0  0  0  0  0  0  0  0
    0.0796    2.2586   29.5766 H   0  0  0  0  0  0  0  0  0  0  0  0
    0.1536    0.5696   31.4167 H   0  0  0  0  0  0  0  0  0  0  0  0
    0.6024   -3.3346   32.5731 H   0  0  0  0  0  0  0  0  0  0  0  0
    1.0205   -2.9686   29.6949 H   0  0  0  0  0  0  0  0  0  0  0  0
    1.4794   -5.5280   29.8878 H   0  0  0  0  0  0  0  0  0  0  0  0
   -0.1070   -4.8500   29.6445 H   0  0  0  0  0  0  0  0  0  0  0  0
   -0.0888   -5.7275   34.7671 H   0  0  0  0  0  0  0  0  0  0  0  0
   -1.4010   -7.8105   34.3015 H   0  0  0  0  0  0  0  0  0  0  0  0
   -2.3245   -8.9718   32.5137 H   0  0  0  0  0  0  0  0  0  0  0  0
    2.9210   -2.4048   30.6037 H   0  0  0  0  0  0  0  0  0  0  0  0
    2.7671   -4.7102   32.4063 H   0  0  0  0  0  0  0  0  0  0  0  0
    4.2634   -4.3801   31.5824 H   0  0  0  0  0  0  0  0  0  0  0  0
    4.1381   -1.9657   32.4018 H   0  0  0  0  0  0  0  0  0  0  0  0
    2.9421   -1.5010   34.3025 H   0  0  0  0  0  0  0  0  0  0  0  0
    1.9194   -1.9721   33.1257 H   0  0  0  0  0  0  0  0  0  0  0  0
    7.8681   -2.6813   34.7075 H   0  0  0  0  0  0  0  0  0  0  0  0
    5.7719   -5.5202   36.5543 H   0  0  0  0  0  0  0  0  0  0  0  0
    2.4910   -7.2196   36.4983 H   0  0  0  0  0  0  0  0  0  0  0  0
    1.9913   -9.0549   37.8599 H   0  0  0  0  0  0  0  0  0  0  0  0
    5.7499  -10.2330   40.3608 H   0  0  0  0  0  0  0  0  0  0  0  0
    8.0410   -9.3232   40.5952 H   0  0  0  0  0  0  0  0  0  0  0  0
    8.7291   -7.3543   39.2521 H   0  0  0  0  0  0  0  0  0  0  0  0
    7.1828   -6.2991   37.7015 H   0  0  0  0  0  0  0  0  0  0  0  0
   -1.6850   -2.2167   28.6850 H   0  0  0  0  0  0  0  0  0  0  0  0
  1  2  1  0
  2  3  2  0
  3  4  1  0
  4  5  2  0
  5  6  1  0
  6  7  2  0
  6  8  2  0
  6  9  1  0
  9 10  1  0
 10 11  1  0
 11 12  1  0
 12 13  2  0
 13 14  1  0
 14 15  2  0
 15 16  1  0
 16 17  1  0
 16 18  2  0
 10 19  1  0
 19 20  1  0
 20 21  1  0
 21 22  1  0
 21 23  1  0
 23 24  1  0
 24 25  1  0
 25 26  2  0
 26 27  1  0
 27 28  1  0
 28 29  2  0
 28 30  1  0
 30 31  1  0
 31 32  2  0
 32 33  1  0
 33 34  1  0
 34 35  2  0
 34 36  1  0
 36 37  2  0
 37 38  1  0
 38 39  2  0
 39 40  1  0
 40 41  2  0
  5 42  1  0
 42 43  2  0
 43  2  1  0
 18 12  1  0
 27 23  2  0
 41 31  1  0
 41 36  1  0
  1 44  1  0
  1 45  1  0
  3 46  1  0
  4 47  1  0
  9 48  1  0
 10 49  1  0
 11 50  1  0
 11 51  1  0
 14 52  1  0
 15 53  1  0
 17 54  1  0
 19 55  1  0
 20 56  1  0
 20 57  1  0
 21 58  1  0
 22 59  1  0
 22 60  1  0
 25 61  1  0
 30 62  1  0
 32 63  1  0
 33 64  1  0
 37 65  1  0
 38 66  1  0
 39 67  1  0
 40 68  1  0
 42 69  1  0
M  END
>  <Energy>  (136) 
-103.28260582933049

>  <compound_id>  (136) 
226

>  <target_id>  (136) 
1

>  <reference_id>  (136) 
149

>  <inspiration_ids>  (136) 
[199, 149]

>  <energy_score>  (136) 
-116.06979263096152

>  <distance_score>  (136) 
1.1125225491987332

>  <path>  (136) 
/opt/xchem-fragalysis-2/maxwin/BulkDock/SCRATCH/505737/C226-P149/C226-P149.minimised.mol

>  <scratch_subdir>  (136) 
/opt/xchem-fragalysis-2/maxwin/BulkDock/SCRATCH/505737/C226-P149

>  <fragmenstein_runtime>  (136) 
15.562932252883911

>  <fragmenstein_outcome>  (136) 
too moved

>  <fragmenstein_mode>  (136) 
expansion

>  <fragmenstein_error>  (136) 


$$$$
C227-P199
     RDKit          3D

 73 77  0  0  0  0  0  0  0  0999 V2000
    0.4631   -2.2552   39.2098 N   0  0  0  0  0  0  0  0  0  0  0  0
    1.5648   -1.6721   38.4470 C   0  0  0  0  0  0  0  0  0  0  0  0
    1.2369   -1.7227   37.0096 C   0  0  0  0  0  0  0  0  0  0  0  0
    0.6856   -0.6023   36.4467 O   0  0  0  0  0  0  0  0  0  0  0  0
    0.4857   -0.9562   35.1483 C   0  0  0  0  0  0  0  0  0  0  0  0
    0.8523   -2.1786   34.8438 N   0  0  0  0  0  0  0  0  0  0  0  0
    1.3342   -2.6931   36.0310 C   0  0  0  0  0  0  0  0  0  0  0  0
    1.8334   -4.0639   36.1751 C   0  0  0  0  0  0  0  0  0  0  0  0
    2.6874   -4.5195   35.4431 N   0  0  0  0  0  0  0  0  0  0  0  0
    3.4084   -3.8310   34.3706 C   0  0  0  0  0  0  0  0  0  0  0  0
    2.9338   -4.2971   32.9711 C   0  0  0  0  0  0  0  0  0  0  0  0
    1.6756   -3.6565   32.5884 N   0  0  0  0  0  0  0  0  0  0  0  0
    0.6647   -4.4997   31.8692 C   0  0  0  0  0  0  0  0  0  0  0  0
    0.6333   -4.1475   30.3774 C   0  0  0  0  0  0  0  0  0  0  0  0
    0.5623   -2.6494   30.2631 N   0  0  0  0  0  0  0  0  0  0  0  0
   -0.8815   -1.9373   30.8158 S   0  0  0  0  0  0  0  0  0  0  0  0
   -1.9384   -2.9268   30.8362 O   0  0  0  0  0  0  0  0  0  0  0  0
   -0.5673   -1.1684   32.0016 O   0  0  0  0  0  0  0  0  0  0  0  0
   -1.1840   -0.7926   29.5319 C   0  0  0  0  0  0  0  0  0  0  0  0
   -0.5543    0.4481   29.5188 C   0  0  0  0  0  0  0  0  0  0  0  0
   -0.8677    1.3438   28.5002 C   0  0  0  0  0  0  0  0  0  0  0  0
   -1.8193    0.9796   27.5601 C   0  0  0  0  0  0  0  0  0  0  0  0
   -2.1952    1.8525   26.5438 N   0  0  0  0  0  0  0  0  0  0  0  0
   -2.4249   -0.2147   27.5702 N   0  0  0  0  0  0  0  0  0  0  0  0
   -2.0928   -1.0912   28.5448 C   0  0  0  0  0  0  0  0  0  0  0  0
    0.4420   -5.9460   32.2664 C   0  0  0  0  0  0  0  0  0  0  0  0
    0.6432   -6.1814   33.5803 N   0  0  0  0  0  0  0  0  0  0  0  0
   -0.1205   -7.0995   34.1658 C   0  0  0  0  0  0  0  0  0  0  0  0
   -1.0283   -7.8321   33.4636 C   0  0  0  0  0  0  0  0  0  0  0  0
   -1.0243   -7.6640   32.1047 C   0  0  0  0  0  0  0  0  0  0  0  0
   -1.8497   -8.4255   31.3217 O   0  0  0  0  0  0  0  0  0  0  0  0
   -0.3183   -6.7227   31.4667 N   0  0  0  0  0  0  0  0  0  0  0  0
    1.0521   -4.7302   37.3867 N   0  0  0  0  0  0  0  0  0  0  0  0
    1.2027   -5.9636   37.9795 C   0  0  0  0  0  0  0  0  0  0  0  0
    2.0879   -6.8819   37.5546 C   0  0  0  0  0  0  0  0  0  0  0  0
    2.3415   -8.0499   38.2202 N   0  0  0  0  0  0  0  0  0  0  0  0
    1.7670   -8.3991   39.4161 C   0  0  0  0  0  0  0  0  0  0  0  0
    2.1394   -9.3811   40.0490 O   0  0  0  0  0  0  0  0  0  0  0  0
    0.7012   -7.4914   39.9085 C   0  0  0  0  0  0  0  0  0  0  0  0
    0.0263   -7.8349   41.0900 C   0  0  0  0  0  0  0  0  0  0  0  0
   -0.9656   -6.9998   41.5910 C   0  0  0  0  0  0  0  0  0  0  0  0
   -1.2968   -5.8411   40.8965 C   0  0  0  0  0  0  0  0  0  0  0  0
   -0.6326   -5.5083   39.7060 C   0  0  0  0  0  0  0  0  0  0  0  0
    0.4035   -6.3094   39.1981 C   0  0  0  0  0  0  0  0  0  0  0  0
   -0.3398   -1.6266   39.1359 H   0  0  0  0  0  0  0  0  0  0  0  0
    0.7177   -2.2497   40.1990 H   0  0  0  0  0  0  0  0  0  0  0  0
    1.7375   -0.6408   38.7726 H   0  0  0  0  0  0  0  0  0  0  0  0
    2.4821   -2.2369   38.6436 H   0  0  0  0  0  0  0  0  0  0  0  0
    0.0504   -0.2098   34.4982 H   0  0  0  0  0  0  0  0  0  0  0  0
    4.4659   -4.1046   34.4717 H   0  0  0  0  0  0  0  0  0  0  0  0
    3.3853   -2.7385   34.4536 H   0  0  0  0  0  0  0  0  0  0  0  0
    2.8880   -5.3864   32.9723 H   0  0  0  0  0  0  0  0  0  0  0  0
    3.6889   -4.0095   32.2313 H   0  0  0  0  0  0  0  0  0  0  0  0
    1.2161   -3.3537   33.4631 H   0  0  0  0  0  0  0  0  0  0  0  0
   -0.2712   -4.0839   32.2667 H   0  0  0  0  0  0  0  0  0  0  0  0
   -0.2048   -4.5997   29.8382 H   0  0  0  0  0  0  0  0  0  0  0  0
    1.5560   -4.4813   29.8890 H   0  0  0  0  0  0  0  0  0  0  0  0
    1.3179   -2.2716   30.8545 H   0  0  0  0  0  0  0  0  0  0  0  0
    0.1749    0.7179   30.2770 H   0  0  0  0  0  0  0  0  0  0  0  0
   -0.3867    2.3146   28.4471 H   0  0  0  0  0  0  0  0  0  0  0  0
   -2.9466    1.3807   26.0390 H   0  0  0  0  0  0  0  0  0  0  0  0
   -2.5391    2.7283   26.9286 H   0  0  0  0  0  0  0  0  0  0  0  0
   -2.6112   -2.0415   28.4982 H   0  0  0  0  0  0  0  0  0  0  0  0
   -0.0127   -7.2038   35.2408 H   0  0  0  0  0  0  0  0  0  0  0  0
   -1.7031   -8.4914   33.9750 H   0  0  0  0  0  0  0  0  0  0  0  0
   -2.4079   -8.9565   31.9252 H   0  0  0  0  0  0  0  0  0  0  0  0
    0.4621   -4.0321   37.8341 H   0  0  0  0  0  0  0  0  0  0  0  0
    2.7002   -6.7209   36.6730 H   0  0  0  0  0  0  0  0  0  0  0  0
    3.0613   -8.6782   37.8881 H   0  0  0  0  0  0  0  0  0  0  0  0
    0.2796   -8.7533   41.6153 H   0  0  0  0  0  0  0  0  0  0  0  0
   -1.4920   -7.2614   42.5047 H   0  0  0  0  0  0  0  0  0  0  0  0
   -2.0992   -5.2009   41.2574 H   0  0  0  0  0  0  0  0  0  0  0  0
   -0.9640   -4.6130   39.1896 H   0  0  0  0  0  0  0  0  0  0  0  0
  1  2  1  0
  2  3  1  0
  3  4  1  0
  4  5  1  0
  5  6  2  0
  6  7  1  0
  7  8  1  0
  8  9  2  3
  9 10  1  0
 10 11  1  0
 11 12  1  0
 12 13  1  0
 13 14  1  0
 14 15  1  0
 15 16  1  0
 16 17  2  0
 16 18  2  0
 16 19  1  0
 19 20  2  0
 20 21  1  0
 21 22  2  0
 22 23  1  0
 22 24  1  0
 24 25  2  0
 13 26  1  0
 26 27  2  0
 27 28  1  0
 28 29  2  0
 29 30  1  0
 30 31  1  0
 30 32  2  0
  8 33  1  0
 33 34  1  0
 34 35  2  0
 35 36  1  0
 36 37  1  0
 37 38  2  0
 37 39  1  0
 39 40  2  0
 40 41  1  0
 41 42  2  0
 42 43  1  0
 43 44  2  0
  7  3  2  0
 25 19  1  0
 32 26  1  0
 44 34  1  0
 44 39  1  0
  1 45  1  0
  1 46  1  0
  2 47  1  0
  2 48  1  0
  5 49  1  0
 10 50  1  0
 10 51  1  0
 11 52  1  0
 11 53  1  0
 12 54  1  0
 13 55  1  0
 14 56  1  0
 14 57  1  0
 15 58  1  0
 20 59  1  0
 21 60  1  0
 23 61  1  0
 23 62  1  0
 25 63  1  0
 28 64  1  0
 29 65  1  0
 31 66  1  0
 33 67  1  0
 35 68  1  0
 36 69  1  0
 40 70  1  0
 41 71  1  0
 42 72  1  0
 43 73  1  0
M  END
>  <Energy>  (137) 
6.979130867924713

>  <compound_id>  (137) 
227

>  <target_id>  (137) 
1

>  <reference_id>  (137) 
199

>  <inspiration_ids>  (137) 
[199, 150]

>  <energy_score>  (137) 
-96.39458756272867

>  <distance_score>  (137) 
1.304457300325164

>  <path>  (137) 
/opt/xchem-fragalysis-2/maxwin/BulkDock/SCRATCH/505737/C227-P199/C227-P199.minimised.mol

>  <scratch_subdir>  (137) 
/opt/xchem-fragalysis-2/maxwin/BulkDock/SCRATCH/505737/C227-P199

>  <fragmenstein_runtime>  (137) 
20.104626655578613

>  <fragmenstein_outcome>  (137) 
too moved

>  <fragmenstein_mode>  (137) 
expansion

>  <fragmenstein_error>  (137) 


$$$$
C227-P150
     RDKit          3D

 73 77  0  0  0  0  0  0  0  0999 V2000
    0.3346   -2.1510   39.3069 N   0  0  0  0  0  0  0  0  0  0  0  0
    1.4169   -1.5400   38.5346 C   0  0  0  0  0  0  0  0  0  0  0  0
    1.1033   -1.6477   37.0969 C   0  0  0  0  0  0  0  0  0  0  0  0
    0.5045   -0.5714   36.4980 O   0  0  0  0  0  0  0  0  0  0  0  0
    0.3234   -0.9761   35.2118 C   0  0  0  0  0  0  0  0  0  0  0  0
    0.7423   -2.1911   34.9488 N   0  0  0  0  0  0  0  0  0  0  0  0
    1.2483   -2.6432   36.1493 C   0  0  0  0  0  0  0  0  0  0  0  0
    1.8021   -3.9872   36.3392 C   0  0  0  0  0  0  0  0  0  0  0  0
    2.6778   -4.4334   35.6291 N   0  0  0  0  0  0  0  0  0  0  0  0
    3.3636   -3.7713   34.5188 C   0  0  0  0  0  0  0  0  0  0  0  0
    2.8810   -4.3151   33.1507 C   0  0  0  0  0  0  0  0  0  0  0  0
    1.6220   -3.6906   32.7517 N   0  0  0  0  0  0  0  0  0  0  0  0
    0.6411   -4.5332   31.9934 C   0  0  0  0  0  0  0  0  0  0  0  0
    0.7242   -4.2434   30.4911 C   0  0  0  0  0  0  0  0  0  0  0  0
    0.7460   -2.7489   30.3286 N   0  0  0  0  0  0  0  0  0  0  0  0
   -0.6892   -1.9561   30.7829 S   0  0  0  0  0  0  0  0  0  0  0  0
   -1.8142   -2.8595   30.6781 O   0  0  0  0  0  0  0  0  0  0  0  0
   -0.4311   -1.2467   32.0189 O   0  0  0  0  0  0  0  0  0  0  0  0
   -0.7808   -0.7621   29.5189 C   0  0  0  0  0  0  0  0  0  0  0  0
   -0.3219    0.5340   29.7196 C   0  0  0  0  0  0  0  0  0  0  0  0
   -0.5215    1.4753   28.7144 C   0  0  0  0  0  0  0  0  0  0  0  0
   -1.1982    1.1054   27.5648 C   0  0  0  0  0  0  0  0  0  0  0  0
   -1.6904    2.0756   26.6905 N   0  0  0  0  0  0  0  0  0  0  0  0
   -1.5878   -0.1572   27.3640 N   0  0  0  0  0  0  0  0  0  0  0  0
   -1.3610   -1.0854   28.3201 C   0  0  0  0  0  0  0  0  0  0  0  0
    0.3572   -5.9527   32.4360 C   0  0  0  0  0  0  0  0  0  0  0  0
    0.5346   -6.1652   33.7576 N   0  0  0  0  0  0  0  0  0  0  0  0
   -0.2640   -7.0511   34.3508 C   0  0  0  0  0  0  0  0  0  0  0  0
   -1.1927   -7.7697   33.6580 C   0  0  0  0  0  0  0  0  0  0  0  0
   -1.1746   -7.6145   32.2980 C   0  0  0  0  0  0  0  0  0  0  0  0
   -2.0031   -8.3541   31.5087 O   0  0  0  0  0  0  0  0  0  0  0  0
   -0.4290   -6.7125   31.6508 N   0  0  0  0  0  0  0  0  0  0  0  0
    1.0628   -4.6281   37.5875 N   0  0  0  0  0  0  0  0  0  0  0  0
    1.1566   -5.8861   38.1333 C   0  0  0  0  0  0  0  0  0  0  0  0
    2.0679   -6.7917   37.7385 C   0  0  0  0  0  0  0  0  0  0  0  0
    2.2699   -7.9843   38.3769 N   0  0  0  0  0  0  0  0  0  0  0  0
    1.5970   -8.3843   39.5040 C   0  0  0  0  0  0  0  0  0  0  0  0
    1.8737   -9.4317   40.0813 O   0  0  0  0  0  0  0  0  0  0  0  0
    0.5275   -7.4690   39.9756 C   0  0  0  0  0  0  0  0  0  0  0  0
   -0.2084   -7.8295   41.1137 C   0  0  0  0  0  0  0  0  0  0  0  0
   -1.2241   -6.9987   41.5744 C   0  0  0  0  0  0  0  0  0  0  0  0
   -1.5243   -5.8308   40.8792 C   0  0  0  0  0  0  0  0  0  0  0  0
   -0.7896   -5.4729   39.7405 C   0  0  0  0  0  0  0  0  0  0  0  0
    0.2776   -6.2655   39.2829 C   0  0  0  0  0  0  0  0  0  0  0  0
   -0.4903   -1.5538   39.2125 H   0  0  0  0  0  0  0  0  0  0  0  0
    0.5842   -2.1035   40.2967 H   0  0  0  0  0  0  0  0  0  0  0  0
    1.5395   -0.4930   38.8311 H   0  0  0  0  0  0  0  0  0  0  0  0
    2.3570   -2.0567   38.7547 H   0  0  0  0  0  0  0  0  0  0  0  0
   -0.1427   -0.2718   34.5369 H   0  0  0  0  0  0  0  0  0  0  0  0
    4.4299   -4.0097   34.6156 H   0  0  0  0  0  0  0  0  0  0  0  0
    3.3079   -2.6774   34.5564 H   0  0  0  0  0  0  0  0  0  0  0  0
    2.8253   -5.4024   33.2170 H   0  0  0  0  0  0  0  0  0  0  0  0
    3.6303   -4.0723   32.3895 H   0  0  0  0  0  0  0  0  0  0  0  0
    1.1361   -3.4014   33.6159 H   0  0  0  0  0  0  0  0  0  0  0  0
   -0.3094   -4.0795   32.3068 H   0  0  0  0  0  0  0  0  0  0  0  0
   -0.1024   -4.6714   29.9157 H   0  0  0  0  0  0  0  0  0  0  0  0
    1.6568   -4.6434   30.0772 H   0  0  0  0  0  0  0  0  0  0  0  0
    1.4769   -2.4006   30.9678 H   0  0  0  0  0  0  0  0  0  0  0  0
    0.1698    0.8214   30.6440 H   0  0  0  0  0  0  0  0  0  0  0  0
   -0.1832    2.4975   28.8447 H   0  0  0  0  0  0  0  0  0  0  0  0
   -2.5535    2.4574   27.0865 H   0  0  0  0  0  0  0  0  0  0  0  0
   -1.0355    2.8389   26.5701 H   0  0  0  0  0  0  0  0  0  0  0  0
   -1.7125   -2.0847   28.0824 H   0  0  0  0  0  0  0  0  0  0  0  0
   -0.1560   -7.1491   35.4265 H   0  0  0  0  0  0  0  0  0  0  0  0
   -1.8698   -8.4275   34.1729 H   0  0  0  0  0  0  0  0  0  0  0  0
   -2.5943   -8.8830   32.0831 H   0  0  0  0  0  0  0  0  0  0  0  0
    0.4359   -3.9408   37.9993 H   0  0  0  0  0  0  0  0  0  0  0  0
    2.7456   -6.5994   36.9126 H   0  0  0  0  0  0  0  0  0  0  0  0
    3.0068   -8.6027   38.0633 H   0  0  0  0  0  0  0  0  0  0  0  0
    0.0111   -8.7572   41.6371 H   0  0  0  0  0  0  0  0  0  0  0  0
   -1.8000   -7.2744   42.4542 H   0  0  0  0  0  0  0  0  0  0  0  0
   -2.3464   -5.1999   41.2116 H   0  0  0  0  0  0  0  0  0  0  0  0
   -1.0780   -4.5602   39.2294 H   0  0  0  0  0  0  0  0  0  0  0  0
  1  2  1  0
  2  3  1  0
  3  4  1  0
  4  5  1  0
  5  6  2  0
  6  7  1  0
  7  8  1  0
  8  9  2  3
  9 10  1  0
 10 11  1  0
 11 12  1  0
 12 13  1  0
 13 14  1  0
 14 15  1  0
 15 16  1  0
 16 17  2  0
 16 18  2  0
 16 19  1  0
 19 20  2  0
 20 21  1  0
 21 22  2  0
 22 23  1  0
 22 24  1  0
 24 25  2  0
 13 26  1  0
 26 27  2  0
 27 28  1  0
 28 29  2  0
 29 30  1  0
 30 31  1  0
 30 32  2  0
  8 33  1  0
 33 34  1  0
 34 35  2  0
 35 36  1  0
 36 37  1  0
 37 38  2  0
 37 39  1  0
 39 40  2  0
 40 41  1  0
 41 42  2  0
 42 43  1  0
 43 44  2  0
  7  3  2  0
 25 19  1  0
 32 26  1  0
 44 34  1  0
 44 39  1  0
  1 45  1  0
  1 46  1  0
  2 47  1  0
  2 48  1  0
  5 49  1  0
 10 50  1  0
 10 51  1  0
 11 52  1  0
 11 53  1  0
 12 54  1  0
 13 55  1  0
 14 56  1  0
 14 57  1  0
 15 58  1  0
 20 59  1  0
 21 60  1  0
 23 61  1  0
 23 62  1  0
 25 63  1  0
 28 64  1  0
 29 65  1  0
 31 66  1  0
 33 67  1  0
 35 68  1  0
 36 69  1  0
 40 70  1  0
 41 71  1  0
 42 72  1  0
 43 73  1  0
M  END
>  <Energy>  (138) 
18.811508593325016

>  <compound_id>  (138) 
227

>  <target_id>  (138) 
1

>  <reference_id>  (138) 
150

>  <inspiration_ids>  (138) 
[199, 150]

>  <energy_score>  (138) 
-84.56220983732928

>  <distance_score>  (138) 
1.3673719756488105

>  <path>  (138) 
/opt/xchem-fragalysis-2/maxwin/BulkDock/SCRATCH/505737/C227-P150/C227-P150.minimised.mol

>  <scratch_subdir>  (138) 
/opt/xchem-fragalysis-2/maxwin/BulkDock/SCRATCH/505737/C227-P150

>  <fragmenstein_runtime>  (138) 
18.73931622505188

>  <fragmenstein_outcome>  (138) 
too moved

>  <fragmenstein_mode>  (138) 
expansion

>  <fragmenstein_error>  (138) 


$$$$
C228-P199
     RDKit          3D

 55 58  0  0  0  0  0  0  0  0999 V2000
   -1.8597    1.4880   26.9240 N   0  0  0  0  0  0  0  0  0  0  0  0
   -1.5984    0.6117   27.9674 C   0  0  0  0  0  0  0  0  0  0  0  0
   -0.7144    0.9503   28.9813 C   0  0  0  0  0  0  0  0  0  0  0  0
   -0.5927    0.1005   30.0787 C   0  0  0  0  0  0  0  0  0  0  0  0
   -1.3491   -1.0670   30.1048 C   0  0  0  0  0  0  0  0  0  0  0  0
   -1.4103   -2.0642   31.5409 S   0  0  0  0  0  0  0  0  0  0  0  0
   -2.3653   -3.1359   31.3569 O   0  0  0  0  0  0  0  0  0  0  0  0
   -1.5219   -1.1613   32.6667 O   0  0  0  0  0  0  0  0  0  0  0  0
    0.1206   -2.7467   31.6386 N   0  0  0  0  0  0  0  0  0  0  0  0
    0.5222   -3.7273   30.6264 C   0  0  0  0  0  0  0  0  0  0  0  0
    1.5328   -4.7153   31.2402 C   0  0  0  0  0  0  0  0  0  0  0  0
    0.9388   -5.8469   32.1414 C   0  0  0  0  0  0  0  0  0  0  0  0
   -0.2788   -6.3959   31.4960 N   0  0  0  0  0  0  0  0  0  0  0  0
   -0.0805   -6.9357   30.1817 N   0  0  0  0  0  0  0  0  0  0  0  0
   -0.2902   -8.3575   30.2432 C   0  0  0  0  0  0  0  0  0  0  0  0
   -1.1491   -8.5818   31.3675 N   0  0  0  0  0  0  0  0  0  0  0  0
   -0.9822   -7.4302   32.2343 C   0  0  0  0  0  0  0  0  0  0  0  0
   -0.4273   -7.7041   33.6093 C   0  0  0  0  0  0  0  0  0  0  0  0
   -0.2858   -6.3995   34.3531 C   0  0  0  0  0  0  0  0  0  0  0  0
    0.8039   -5.4963   33.7313 C   0  0  0  0  0  0  0  0  0  0  0  0
    2.1495   -5.8124   34.5206 C   0  0  0  0  0  0  0  0  0  0  0  0
    2.3865   -5.0444   35.7632 N   0  0  0  0  0  0  0  0  0  0  0  0
    1.1712   -4.5208   36.4004 C   0  0  0  0  0  0  0  0  0  0  0  0
    0.2081   -3.8139   35.4198 C   0  0  0  0  0  0  0  0  0  0  0  0
    0.5368   -4.0556   33.9916 N   0  0  0  0  0  0  0  0  0  0  0  0
   -2.1735   -1.3503   29.0389 C   0  0  0  0  0  0  0  0  0  0  0  0
   -2.3134   -0.5209   27.9805 N   0  0  0  0  0  0  0  0  0  0  0  0
   -1.0187    1.7967   26.4607 H   0  0  0  0  0  0  0  0  0  0  0  0
   -2.5080    1.0038   26.3038 H   0  0  0  0  0  0  0  0  0  0  0  0
   -0.1726    1.8894   28.9476 H   0  0  0  0  0  0  0  0  0  0  0  0
    0.0490    0.3684   30.9135 H   0  0  0  0  0  0  0  0  0  0  0  0
    0.1514   -3.1324   32.5995 H   0  0  0  0  0  0  0  0  0  0  0  0
    1.0159   -3.1774   29.8166 H   0  0  0  0  0  0  0  0  0  0  0  0
   -0.3384   -4.2326   30.1847 H   0  0  0  0  0  0  0  0  0  0  0  0
    2.3091   -4.1724   31.7937 H   0  0  0  0  0  0  0  0  0  0  0  0
    2.0585   -5.1878   30.4003 H   0  0  0  0  0  0  0  0  0  0  0  0
    1.6846   -6.6429   32.1294 H   0  0  0  0  0  0  0  0  0  0  0  0
    0.7617   -6.6778   29.6789 H   0  0  0  0  0  0  0  0  0  0  0  0
   -0.7219   -8.7451   29.3252 H   0  0  0  0  0  0  0  0  0  0  0  0
    0.6466   -8.8751   30.3489 H   0  0  0  0  0  0  0  0  0  0  0  0
   -0.9010   -9.4422   31.8463 H   0  0  0  0  0  0  0  0  0  0  0  0
   -1.9756   -7.0670   32.4076 H   0  0  0  0  0  0  0  0  0  0  0  0
    0.5419   -8.1870   33.5616 H   0  0  0  0  0  0  0  0  0  0  0  0
   -1.1206   -8.3303   34.1667 H   0  0  0  0  0  0  0  0  0  0  0  0
   -1.2453   -5.8966   34.3235 H   0  0  0  0  0  0  0  0  0  0  0  0
   -0.0967   -6.6332   35.4047 H   0  0  0  0  0  0  0  0  0  0  0  0
    2.2044   -6.8834   34.7506 H   0  0  0  0  0  0  0  0  0  0  0  0
    3.0010   -5.5928   33.8660 H   0  0  0  0  0  0  0  0  0  0  0  0
    2.9212   -5.5965   36.4324 H   0  0  0  0  0  0  0  0  0  0  0  0
    0.6515   -5.3358   36.9156 H   0  0  0  0  0  0  0  0  0  0  0  0
    1.4693   -3.8107   37.1801 H   0  0  0  0  0  0  0  0  0  0  0  0
    0.2709   -2.7307   35.5801 H   0  0  0  0  0  0  0  0  0  0  0  0
   -0.8293   -4.0882   35.6367 H   0  0  0  0  0  0  0  0  0  0  0  0
    1.4544   -3.5943   33.8986 H   0  0  0  0  0  0  0  0  0  0  0  0
   -2.7987   -2.2359   29.0022 H   0  0  0  0  0  0  0  0  0  0  0  0
  1  2  1  0
  2  3  2  0
  3  4  1  0
  4  5  2  0
  5  6  1  0
  6  7  2  0
  6  8  2  0
  6  9  1  0
  9 10  1  0
 10 11  1  0
 11 12  1  0
 12 13  1  0
 13 14  1  0
 14 15  1  0
 15 16  1  0
 16 17  1  0
 17 18  1  0
 18 19  1  0
 19 20  1  0
 20 21  1  0
 21 22  1  0
 22 23  1  0
 23 24  1  0
 24 25  1  0
  5 26  1  0
 26 27  2  0
 27  2  1  0
 20 12  1  0
 17 13  1  0
 25 20  1  0
  1 28  1  0
  1 29  1  0
  3 30  1  0
  4 31  1  0
  9 32  1  0
 10 33  1  0
 10 34  1  0
 11 35  1  0
 11 36  1  0
 12 37  1  0
 14 38  1  0
 15 39  1  0
 15 40  1  0
 16 41  1  0
 17 42  1  0
 18 43  1  0
 18 44  1  0
 19 45  1  0
 19 46  1  0
 21 47  1  0
 21 48  1  0
 22 49  1  0
 23 50  1  0
 23 51  1  0
 24 52  1  0
 24 53  1  0
 25 54  1  0
 26 55  1  0
M  END
>  <Energy>  (139) 
7.9441180524163926

>  <compound_id>  (139) 
228

>  <target_id>  (139) 
1

>  <reference_id>  (139) 
199

>  <inspiration_ids>  (139) 
[199, 152]

>  <energy_score>  (139) 
-358.12389628007224

>  <distance_score>  (139) 
1.5970226653900497

>  <path>  (139) 
/opt/xchem-fragalysis-2/maxwin/BulkDock/SCRATCH/505737/C228-P199/C228-P199.minimised.mol

>  <scratch_subdir>  (139) 
/opt/xchem-fragalysis-2/maxwin/BulkDock/SCRATCH/505737/C228-P199

>  <fragmenstein_runtime>  (139) 
4.933467149734497

>  <fragmenstein_outcome>  (139) 
too moved

>  <fragmenstein_mode>  (139) 
expansion

>  <fragmenstein_error>  (139) 


$$$$
C228-P152
     RDKit          3D

 55 58  0  0  0  0  0  0  0  0999 V2000
   -1.5323    1.3637   26.8189 N   0  0  0  0  0  0  0  0  0  0  0  0
   -1.2558    0.5574   27.9183 C   0  0  0  0  0  0  0  0  0  0  0  0
   -0.7212    1.0804   29.0821 C   0  0  0  0  0  0  0  0  0  0  0  0
   -0.6252    0.2565   30.2047 C   0  0  0  0  0  0  0  0  0  0  0  0
   -1.0508   -1.0641   30.1090 C   0  0  0  0  0  0  0  0  0  0  0  0
   -1.2466   -2.0574   31.5408 S   0  0  0  0  0  0  0  0  0  0  0  0
   -2.1151   -3.1818   31.2517 O   0  0  0  0  0  0  0  0  0  0  0  0
   -1.5528   -1.1686   32.6412 O   0  0  0  0  0  0  0  0  0  0  0  0
    0.2901   -2.6554   31.8328 N   0  0  0  0  0  0  0  0  0  0  0  0
    0.8643   -3.5770   30.8558 C   0  0  0  0  0  0  0  0  0  0  0  0
    1.7579   -4.5982   31.5650 C   0  0  0  0  0  0  0  0  0  0  0  0
    1.0463   -5.7373   32.3581 C   0  0  0  0  0  0  0  0  0  0  0  0
   -0.0932   -6.1970   31.5551 N   0  0  0  0  0  0  0  0  0  0  0  0
    0.3576   -6.8258   30.3351 N   0  0  0  0  0  0  0  0  0  0  0  0
   -0.6062   -7.8613   30.0600 C   0  0  0  0  0  0  0  0  0  0  0  0
   -1.1525   -8.2696   31.3302 N   0  0  0  0  0  0  0  0  0  0  0  0
   -1.0775   -7.0706   32.1518 C   0  0  0  0  0  0  0  0  0  0  0  0
   -1.0738   -7.3377   33.6495 C   0  0  0  0  0  0  0  0  0  0  0  0
    0.1310   -6.8371   34.4167 C   0  0  0  0  0  0  0  0  0  0  0  0
    0.7273   -5.5022   33.8984 C   0  0  0  0  0  0  0  0  0  0  0  0
    2.0423   -5.2438   34.7378 C   0  0  0  0  0  0  0  0  0  0  0  0
    1.8207   -4.9701   36.1722 N   0  0  0  0  0  0  0  0  0  0  0  0
    0.9100   -3.8209   36.2917 C   0  0  0  0  0  0  0  0  0  0  0  0
   -0.3985   -4.0073   35.5016 C   0  0  0  0  0  0  0  0  0  0  0  0
   -0.2046   -4.3718   34.0826 N   0  0  0  0  0  0  0  0  0  0  0  0
   -1.4764   -1.5304   28.8860 C   0  0  0  0  0  0  0  0  0  0  0  0
   -1.5823   -0.7366   27.7976 N   0  0  0  0  0  0  0  0  0  0  0  0
   -2.1473    2.1298   27.0840 H   0  0  0  0  0  0  0  0  0  0  0  0
   -1.9985    0.7393   26.1595 H   0  0  0  0  0  0  0  0  0  0  0  0
   -0.4377    2.1271   29.1323 H   0  0  0  0  0  0  0  0  0  0  0  0
   -0.2671    0.6602   31.1478 H   0  0  0  0  0  0  0  0  0  0  0  0
    0.3031   -2.9960   32.8091 H   0  0  0  0  0  0  0  0  0  0  0  0
    1.4848   -2.9830   30.1741 H   0  0  0  0  0  0  0  0  0  0  0  0
    0.0992   -4.0506   30.2378 H   0  0  0  0  0  0  0  0  0  0  0  0
    2.4731   -4.0765   32.2090 H   0  0  0  0  0  0  0  0  0  0  0  0
    2.3682   -5.0672   30.7808 H   0  0  0  0  0  0  0  0  0  0  0  0
    1.7764   -6.5435   32.3948 H   0  0  0  0  0  0  0  0  0  0  0  0
    0.3115   -6.1512   29.5650 H   0  0  0  0  0  0  0  0  0  0  0  0
   -1.4022   -7.4539   29.4342 H   0  0  0  0  0  0  0  0  0  0  0  0
   -0.1517   -8.7025   29.5285 H   0  0  0  0  0  0  0  0  0  0  0  0
   -0.5212   -8.9572   31.7150 H   0  0  0  0  0  0  0  0  0  0  0  0
   -2.0126   -6.5716   31.9622 H   0  0  0  0  0  0  0  0  0  0  0  0
   -1.2055   -8.4013   33.8559 H   0  0  0  0  0  0  0  0  0  0  0  0
   -1.9551   -6.8676   34.0917 H   0  0  0  0  0  0  0  0  0  0  0  0
   -0.1467   -6.7797   35.4757 H   0  0  0  0  0  0  0  0  0  0  0  0
    0.9057   -7.6082   34.3831 H   0  0  0  0  0  0  0  0  0  0  0  0
    2.7099   -6.1100   34.6567 H   0  0  0  0  0  0  0  0  0  0  0  0
    2.5979   -4.3966   34.3205 H   0  0  0  0  0  0  0  0  0  0  0  0
    1.3830   -5.7752   36.6167 H   0  0  0  0  0  0  0  0  0  0  0  0
    0.6772   -3.6616   37.3503 H   0  0  0  0  0  0  0  0  0  0  0  0
    1.4255   -2.9168   35.9444 H   0  0  0  0  0  0  0  0  0  0  0  0
   -0.9667   -3.0710   35.5374 H   0  0  0  0  0  0  0  0  0  0  0  0
   -1.0170   -4.7651   35.9971 H   0  0  0  0  0  0  0  0  0  0  0  0
   -1.1351   -4.5909   33.7050 H   0  0  0  0  0  0  0  0  0  0  0  0
   -1.8013   -2.5535   28.7279 H   0  0  0  0  0  0  0  0  0  0  0  0
  1  2  1  0
  2  3  2  0
  3  4  1  0
  4  5  2  0
  5  6  1  0
  6  7  2  0
  6  8  2  0
  6  9  1  0
  9 10  1  0
 10 11  1  0
 11 12  1  0
 12 13  1  0
 13 14  1  0
 14 15  1  0
 15 16  1  0
 16 17  1  0
 17 18  1  0
 18 19  1  0
 19 20  1  0
 20 21  1  0
 21 22  1  0
 22 23  1  0
 23 24  1  0
 24 25  1  0
  5 26  1  0
 26 27  2  0
 27  2  1  0
 20 12  1  0
 17 13  1  0
 25 20  1  0
  1 28  1  0
  1 29  1  0
  3 30  1  0
  4 31  1  0
  9 32  1  0
 10 33  1  0
 10 34  1  0
 11 35  1  0
 11 36  1  0
 12 37  1  0
 14 38  1  0
 15 39  1  0
 15 40  1  0
 16 41  1  0
 17 42  1  0
 18 43  1  0
 18 44  1  0
 19 45  1  0
 19 46  1  0
 21 47  1  0
 21 48  1  0
 22 49  1  0
 23 50  1  0
 23 51  1  0
 24 52  1  0
 24 53  1  0
 25 54  1  0
 26 55  1  0
M  END
>  <Energy>  (140) 
-11.289566034850818

>  <compound_id>  (140) 
228

>  <target_id>  (140) 
1

>  <reference_id>  (140) 
152

>  <inspiration_ids>  (140) 
[199, 152]

>  <energy_score>  (140) 
-377.3575803673376

>  <distance_score>  (140) 
1.6080642015298903

>  <path>  (140) 
/opt/xchem-fragalysis-2/maxwin/BulkDock/SCRATCH/505737/C228-P152/C228-P152.minimised.mol

>  <scratch_subdir>  (140) 
/opt/xchem-fragalysis-2/maxwin/BulkDock/SCRATCH/505737/C228-P152

>  <fragmenstein_runtime>  (140) 
4.4733195304870605

>  <fragmenstein_outcome>  (140) 
too moved

>  <fragmenstein_mode>  (140) 
expansion

>  <fragmenstein_error>  (140) 


$$$$
C228-P199
     RDKit          3D

 55 58  0  0  0  0  0  0  0  0999 V2000
   -1.8268    1.4921   26.9079 N   0  0  0  0  0  0  0  0  0  0  0  0
   -1.5854    0.6206   27.9596 C   0  0  0  0  0  0  0  0  0  0  0  0
   -0.7193    0.9636   28.9875 C   0  0  0  0  0  0  0  0  0  0  0  0
   -0.6228    0.1234   30.0945 C   0  0  0  0  0  0  0  0  0  0  0  0
   -1.3890   -1.0371   30.1178 C   0  0  0  0  0  0  0  0  0  0  0  0
   -1.4819   -2.0215   31.5592 S   0  0  0  0  0  0  0  0  0  0  0  0
   -2.4158   -3.1106   31.3581 O   0  0  0  0  0  0  0  0  0  0  0  0
   -1.6257   -1.1176   32.6794 O   0  0  0  0  0  0  0  0  0  0  0  0
    0.0502   -2.6898   31.6982 N   0  0  0  0  0  0  0  0  0  0  0  0
    0.4112   -3.7818   30.7977 C   0  0  0  0  0  0  0  0  0  0  0  0
    1.5643   -4.5606   31.4293 C   0  0  0  0  0  0  0  0  0  0  0  0
    1.2146   -5.7081   32.4231 C   0  0  0  0  0  0  0  0  0  0  0  0
    0.4810   -6.8393   31.8346 N   0  0  0  0  0  0  0  0  0  0  0  0
    0.4053   -6.9813   30.4215 N   0  0  0  0  0  0  0  0  0  0  0  0
   -0.4875   -8.1199   30.2957 C   0  0  0  0  0  0  0  0  0  0  0  0
   -1.3902   -8.0900   31.4380 N   0  0  0  0  0  0  0  0  0  0  0  0
   -0.8473   -7.0594   32.3213 C   0  0  0  0  0  0  0  0  0  0  0  0
   -0.8106   -7.4515   33.7804 C   0  0  0  0  0  0  0  0  0  0  0  0
    0.2333   -6.6813   34.5797 C   0  0  0  0  0  0  0  0  0  0  0  0
    0.7301   -5.3526   33.9312 C   0  0  0  0  0  0  0  0  0  0  0  0
    1.9417   -4.8621   34.8155 C   0  0  0  0  0  0  0  0  0  0  0  0
    1.6251   -4.5652   36.2280 N   0  0  0  0  0  0  0  0  0  0  0  0
    0.2917   -3.9618   36.3808 C   0  0  0  0  0  0  0  0  0  0  0  0
   -0.2710   -3.3860   35.0745 C   0  0  0  0  0  0  0  0  0  0  0  0
   -0.3526   -4.3380   33.9386 N   0  0  0  0  0  0  0  0  0  0  0  0
   -2.1926   -1.3267   29.0376 C   0  0  0  0  0  0  0  0  0  0  0  0
   -2.3049   -0.5099   27.9665 N   0  0  0  0  0  0  0  0  0  0  0  0
   -2.4618    1.0082   26.2760 H   0  0  0  0  0  0  0  0  0  0  0  0
   -0.9775    1.8147   26.4698 H   0  0  0  0  0  0  0  0  0  0  0  0
   -0.1720    1.8998   28.9565 H   0  0  0  0  0  0  0  0  0  0  0  0
    0.0061    0.3959   30.9377 H   0  0  0  0  0  0  0  0  0  0  0  0
    0.1191   -2.9773   32.6860 H   0  0  0  0  0  0  0  0  0  0  0  0
    0.7355   -3.3476   29.8460 H   0  0  0  0  0  0  0  0  0  0  0  0
   -0.4516   -4.4178   30.6070 H   0  0  0  0  0  0  0  0  0  0  0  0
    2.2571   -3.8684   31.9258 H   0  0  0  0  0  0  0  0  0  0  0  0
    2.1460   -4.9962   30.6056 H   0  0  0  0  0  0  0  0  0  0  0  0
    2.1976   -6.1489   32.6154 H   0  0  0  0  0  0  0  0  0  0  0  0
   -0.0705   -6.2063   29.9632 H   0  0  0  0  0  0  0  0  0  0  0  0
   -1.0688   -8.0273   29.3856 H   0  0  0  0  0  0  0  0  0  0  0  0
    0.0640   -9.0588   30.2393 H   0  0  0  0  0  0  0  0  0  0  0  0
   -1.2959   -8.9860   31.9176 H   0  0  0  0  0  0  0  0  0  0  0  0
   -1.4155   -6.1429   32.1898 H   0  0  0  0  0  0  0  0  0  0  0  0
   -0.5653   -8.5051   33.8821 H   0  0  0  0  0  0  0  0  0  0  0  0
   -1.7951   -7.3281   34.2376 H   0  0  0  0  0  0  0  0  0  0  0  0
    1.1024   -7.3432   34.7103 H   0  0  0  0  0  0  0  0  0  0  0  0
   -0.1616   -6.5342   35.5900 H   0  0  0  0  0  0  0  0  0  0  0  0
    2.7470   -5.6070   34.8000 H   0  0  0  0  0  0  0  0  0  0  0  0
    2.3699   -3.9563   34.3673 H   0  0  0  0  0  0  0  0  0  0  0  0
    1.6555   -5.4214   36.7816 H   0  0  0  0  0  0  0  0  0  0  0  0
   -0.4076   -4.7055   36.7801 H   0  0  0  0  0  0  0  0  0  0  0  0
    0.3577   -3.1669   37.1318 H   0  0  0  0  0  0  0  0  0  0  0  0
    0.3519   -2.5356   34.7694 H   0  0  0  0  0  0  0  0  0  0  0  0
   -1.2696   -2.9726   35.2568 H   0  0  0  0  0  0  0  0  0  0  0  0
   -1.2733   -4.7916   34.0330 H   0  0  0  0  0  0  0  0  0  0  0  0
   -2.8246   -2.2072   28.9976 H   0  0  0  0  0  0  0  0  0  0  0  0
  1  2  1  0
  2  3  2  0
  3  4  1  0
  4  5  2  0
  5  6  1  0
  6  7  2  0
  6  8  2  0
  6  9  1  0
  9 10  1  0
 10 11  1  0
 11 12  1  0
 12 13  1  0
 13 14  1  0
 14 15  1  0
 15 16  1  0
 16 17  1  0
 17 18  1  0
 18 19  1  0
 19 20  1  0
 20 21  1  0
 21 22  1  0
 22 23  1  0
 23 24  1  0
 24 25  1  0
  5 26  1  0
 26 27  2  0
 27  2  1  0
 20 12  1  0
 17 13  1  0
 25 20  1  0
  1 28  1  0
  1 29  1  0
  3 30  1  0
  4 31  1  0
  9 32  1  0
 10 33  1  0
 10 34  1  0
 11 35  1  0
 11 36  1  0
 12 37  1  0
 14 38  1  0
 15 39  1  0
 15 40  1  0
 16 41  1  0
 17 42  1  0
 18 43  1  0
 18 44  1  0
 19 45  1  0
 19 46  1  0
 21 47  1  0
 21 48  1  0
 22 49  1  0
 23 50  1  0
 23 51  1  0
 24 52  1  0
 24 53  1  0
 25 54  1  0
 26 55  1  0
M  END
>  <Energy>  (141) 
2.2729554160478913

>  <compound_id>  (141) 
228

>  <target_id>  (141) 
1

>  <reference_id>  (141) 
199

>  <inspiration_ids>  (141) 
[199, 153]

>  <energy_score>  (141) 
-363.7950589164398

>  <distance_score>  (141) 
1.759619150288137

>  <path>  (141) 
/opt/xchem-fragalysis-2/maxwin/BulkDock/SCRATCH/505737/C228-P199/C228-P199.minimised.mol

>  <scratch_subdir>  (141) 
/opt/xchem-fragalysis-2/maxwin/BulkDock/SCRATCH/505737/C228-P199

>  <fragmenstein_runtime>  (141) 
4.551234722137451

>  <fragmenstein_outcome>  (141) 
too moved

>  <fragmenstein_mode>  (141) 
expansion

>  <fragmenstein_error>  (141) 


$$$$
C228-P153
     RDKit          3D

 55 58  0  0  0  0  0  0  0  0999 V2000
   -1.3418    1.2848   26.7282 N   0  0  0  0  0  0  0  0  0  0  0  0
   -1.0571    0.4971   27.8303 C   0  0  0  0  0  0  0  0  0  0  0  0
   -0.4970    1.0350   28.9744 C   0  0  0  0  0  0  0  0  0  0  0  0
   -0.4860    0.2716   30.1392 C   0  0  0  0  0  0  0  0  0  0  0  0
   -0.9851   -1.0241   30.0867 C   0  0  0  0  0  0  0  0  0  0  0  0
   -1.2767   -1.9500   31.5400 S   0  0  0  0  0  0  0  0  0  0  0  0
   -2.2585   -2.9846   31.2847 O   0  0  0  0  0  0  0  0  0  0  0  0
   -1.4524   -1.0138   32.6286 O   0  0  0  0  0  0  0  0  0  0  0  0
    0.1948   -2.7056   31.8084 N   0  0  0  0  0  0  0  0  0  0  0  0
    0.5830   -3.7649   30.8833 C   0  0  0  0  0  0  0  0  0  0  0  0
    1.6622   -4.6100   31.5519 C   0  0  0  0  0  0  0  0  0  0  0  0
    1.1962   -5.7756   32.4678 C   0  0  0  0  0  0  0  0  0  0  0  0
    0.4191   -6.8222   31.7890 N   0  0  0  0  0  0  0  0  0  0  0  0
    0.4651   -6.9320   30.3668 N   0  0  0  0  0  0  0  0  0  0  0  0
   -0.6657   -7.7891   30.0596 C   0  0  0  0  0  0  0  0  0  0  0  0
   -1.3921   -8.0572   31.2925 N   0  0  0  0  0  0  0  0  0  0  0  0
   -0.9453   -7.0000   32.1897 C   0  0  0  0  0  0  0  0  0  0  0  0
   -1.0427   -7.3871   33.6564 C   0  0  0  0  0  0  0  0  0  0  0  0
    0.0693   -6.7866   34.5113 C   0  0  0  0  0  0  0  0  0  0  0  0
    0.6496   -5.4509   33.9582 C   0  0  0  0  0  0  0  0  0  0  0  0
    1.8342   -5.0404   34.9153 C   0  0  0  0  0  0  0  0  0  0  0  0
    1.4646   -4.7694   36.3178 N   0  0  0  0  0  0  0  0  0  0  0  0
    0.1422   -4.1357   36.4339 C   0  0  0  0  0  0  0  0  0  0  0  0
   -0.3465   -3.4951   35.1277 C   0  0  0  0  0  0  0  0  0  0  0  0
   -0.4032   -4.4008   33.9526 N   0  0  0  0  0  0  0  0  0  0  0  0
   -1.4031   -1.5254   28.8767 C   0  0  0  0  0  0  0  0  0  0  0  0
   -1.4662   -0.7739   27.7604 N   0  0  0  0  0  0  0  0  0  0  0  0
   -1.7418    0.6506   26.0377 H   0  0  0  0  0  0  0  0  0  0  0  0
   -0.5488    1.8141   26.3979 H   0  0  0  0  0  0  0  0  0  0  0  0
   -0.1403    2.0579   28.9715 H   0  0  0  0  0  0  0  0  0  0  0  0
   -0.1336    0.7000   31.0728 H   0  0  0  0  0  0  0  0  0  0  0  0
    0.1368   -3.0564   32.7770 H   0  0  0  0  0  0  0  0  0  0  0  0
    0.9928   -3.3023   29.9793 H   0  0  0  0  0  0  0  0  0  0  0  0
   -0.2870   -4.3569   30.6024 H   0  0  0  0  0  0  0  0  0  0  0  0
    2.3460   -3.9664   32.1207 H   0  0  0  0  0  0  0  0  0  0  0  0
    2.2823   -5.0382   30.7522 H   0  0  0  0  0  0  0  0  0  0  0  0
    2.1414   -6.2865   32.6839 H   0  0  0  0  0  0  0  0  0  0  0  0
    0.2815   -6.0569   29.8781 H   0  0  0  0  0  0  0  0  0  0  0  0
   -1.3422   -7.2726   29.3759 H   0  0  0  0  0  0  0  0  0  0  0  0
   -0.3319   -8.7159   29.5829 H   0  0  0  0  0  0  0  0  0  0  0  0
   -1.0022   -8.9240   31.6627 H   0  0  0  0  0  0  0  0  0  0  0  0
   -1.5115   -6.0858   31.9977 H   0  0  0  0  0  0  0  0  0  0  0  0
   -1.0365   -8.4687   33.7929 H   0  0  0  0  0  0  0  0  0  0  0  0
   -1.9998   -7.0556   34.0606 H   0  0  0  0  0  0  0  0  0  0  0  0
   -0.3078   -6.6917   35.5346 H   0  0  0  0  0  0  0  0  0  0  0  0
    0.8862   -7.5188   34.5751 H   0  0  0  0  0  0  0  0  0  0  0  0
    2.6068   -5.8192   34.9138 H   0  0  0  0  0  0  0  0  0  0  0  0
    2.3205   -4.1406   34.5173 H   0  0  0  0  0  0  0  0  0  0  0  0
    1.4549   -5.6357   36.8566 H   0  0  0  0  0  0  0  0  0  0  0  0
   -0.5932   -4.8763   36.7694 H   0  0  0  0  0  0  0  0  0  0  0  0
    0.1925   -3.3732   37.2188 H   0  0  0  0  0  0  0  0  0  0  0  0
    0.3116   -2.6519   34.8827 H   0  0  0  0  0  0  0  0  0  0  0  0
   -1.3418   -3.0628   35.2814 H   0  0  0  0  0  0  0  0  0  0  0  0
   -1.3351   -4.8263   33.9775 H   0  0  0  0  0  0  0  0  0  0  0  0
   -1.7808   -2.5354   28.7619 H   0  0  0  0  0  0  0  0  0  0  0  0
  1  2  1  0
  2  3  2  0
  3  4  1  0
  4  5  2  0
  5  6  1  0
  6  7  2  0
  6  8  2  0
  6  9  1  0
  9 10  1  0
 10 11  1  0
 11 12  1  0
 12 13  1  0
 13 14  1  0
 14 15  1  0
 15 16  1  0
 16 17  1  0
 17 18  1  0
 18 19  1  0
 19 20  1  0
 20 21  1  0
 21 22  1  0
 22 23  1  0
 23 24  1  0
 24 25  1  0
  5 26  1  0
 26 27  2  0
 27  2  1  0
 20 12  1  0
 17 13  1  0
 25 20  1  0
  1 28  1  0
  1 29  1  0
  3 30  1  0
  4 31  1  0
  9 32  1  0
 10 33  1  0
 10 34  1  0
 11 35  1  0
 11 36  1  0
 12 37  1  0
 14 38  1  0
 15 39  1  0
 15 40  1  0
 16 41  1  0
 17 42  1  0
 18 43  1  0
 18 44  1  0
 19 45  1  0
 19 46  1  0
 21 47  1  0
 21 48  1  0
 22 49  1  0
 23 50  1  0
 23 51  1  0
 24 52  1  0
 24 53  1  0
 25 54  1  0
 26 55  1  0
M  END
>  <Energy>  (142) 
2.7130018067308654

>  <compound_id>  (142) 
228

>  <target_id>  (142) 
1

>  <reference_id>  (142) 
153

>  <inspiration_ids>  (142) 
[199, 153]

>  <energy_score>  (142) 
-363.3550125257554

>  <distance_score>  (142) 
1.692765350151284

>  <path>  (142) 
/opt/xchem-fragalysis-2/maxwin/BulkDock/SCRATCH/505737/C228-P153/C228-P153.minimised.mol

>  <scratch_subdir>  (142) 
/opt/xchem-fragalysis-2/maxwin/BulkDock/SCRATCH/505737/C228-P153

>  <fragmenstein_runtime>  (142) 
5.0856544971466064

>  <fragmenstein_outcome>  (142) 
too moved

>  <fragmenstein_mode>  (142) 
expansion

>  <fragmenstein_error>  (142) 


$$$$
C254-P199
     RDKit          3D

 59 61  0  0  0  0  0  0  0  0999 V2000
   -0.7629   -4.0306   28.9579 C   0  0  0  0  0  0  0  0  0  0  0  0
    0.4907   -3.5966   28.9722 C   0  0  0  0  0  0  0  0  0  0  0  0
    1.0718   -2.9194   30.1682 C   0  0  0  0  0  0  0  0  0  0  0  0
    1.8312   -4.0604   30.9111 C   0  0  0  0  0  0  0  0  0  0  0  0
    1.1907   -5.1644   31.7146 C   0  0  0  0  0  0  0  0  0  0  0  0
    1.8032   -5.3456   32.8943 N   0  0  0  0  0  0  0  0  0  0  0  0
    1.1904   -6.1296   33.7779 C   0  0  0  0  0  0  0  0  0  0  0  0
    0.0356   -6.8276   33.5224 C   0  0  0  0  0  0  0  0  0  0  0  0
   -0.6872   -7.5020   34.6470 C   0  0  0  0  0  0  0  0  0  0  0  0
   -0.6091   -6.7355   35.9793 C   0  0  0  0  0  0  0  0  0  0  0  0
    0.4115   -7.3120   36.9536 C   0  0  0  0  0  0  0  0  0  0  0  0
   -0.3410   -6.7999   32.1927 C   0  0  0  0  0  0  0  0  0  0  0  0
   -1.2947   -7.6528   31.6938 O   0  0  0  0  0  0  0  0  0  0  0  0
    0.1991   -5.9651   31.2750 N   0  0  0  0  0  0  0  0  0  0  0  0
    0.1247   -1.8846   30.7221 N   0  0  0  0  0  0  0  0  0  0  0  0
    0.2227   -1.5264   32.1214 C   0  0  0  0  0  0  0  0  0  0  0  0
   -0.0190   -2.6889   33.4128 S   0  0  0  0  0  0  0  0  0  0  0  0
    1.4046   -0.6878   32.2311 N   0  0  0  0  0  0  0  0  0  0  0  0
    1.4097    0.1098   30.9687 N   0  0  0  0  0  0  0  0  0  0  0  0
    2.7631    0.2438   30.4493 C   0  0  0  0  0  0  0  0  0  0  0  0
    3.5320   -0.9461   30.5852 O   0  0  0  0  0  0  0  0  0  0  0  0
    0.3613   -0.4950   30.1257 C   0  0  0  0  0  0  0  0  0  0  0  0
    0.4804   -0.3833   28.5977 C   0  0  0  0  0  0  0  0  0  0  0  0
   -0.8365   -0.6792   27.8846 C   0  0  0  0  0  0  0  0  0  0  0  0
   -2.1450   -0.5251   28.6574 C   0  0  0  0  0  0  0  0  0  0  0  0
   -2.7670   -1.7932   28.8765 N   0  0  0  0  0  0  0  0  0  0  0  0
   -2.1343   -0.0858   30.0254 N   0  0  0  0  0  0  0  0  0  0  0  0
   -0.8499    0.4981   30.3821 C   0  0  0  0  0  0  0  0  0  0  0  0
   -1.3923   -3.8664   29.8234 H   0  0  0  0  0  0  0  0  0  0  0  0
   -1.1856   -4.5053   28.0918 H   0  0  0  0  0  0  0  0  0  0  0  0
    1.1378   -3.7603   28.1206 H   0  0  0  0  0  0  0  0  0  0  0  0
    1.9071   -2.3538   29.7486 H   0  0  0  0  0  0  0  0  0  0  0  0
    2.5412   -3.5497   31.5789 H   0  0  0  0  0  0  0  0  0  0  0  0
    2.4822   -4.5744   30.1865 H   0  0  0  0  0  0  0  0  0  0  0  0
    1.6694   -6.1233   34.7500 H   0  0  0  0  0  0  0  0  0  0  0  0
   -0.2680   -8.4957   34.7789 H   0  0  0  0  0  0  0  0  0  0  0  0
   -1.7438   -7.6103   34.3847 H   0  0  0  0  0  0  0  0  0  0  0  0
   -0.4351   -5.6626   35.8369 H   0  0  0  0  0  0  0  0  0  0  0  0
   -1.5786   -6.8029   36.4567 H   0  0  0  0  0  0  0  0  0  0  0  0
    0.4021   -6.7404   37.8872 H   0  0  0  0  0  0  0  0  0  0  0  0
    0.1726   -8.3506   37.1967 H   0  0  0  0  0  0  0  0  0  0  0  0
    1.4282   -7.2899   36.5548 H   0  0  0  0  0  0  0  0  0  0  0  0
   -1.5078   -8.2976   32.3880 H   0  0  0  0  0  0  0  0  0  0  0  0
   -0.6359   -0.8971   32.3668 H   0  0  0  0  0  0  0  0  0  0  0  0
    0.1371   -1.8094   34.4095 H   0  0  0  0  0  0  0  0  0  0  0  0
    2.2053   -1.3272   32.2070 H   0  0  0  0  0  0  0  0  0  0  0  0
    2.7897    0.5746   29.4073 H   0  0  0  0  0  0  0  0  0  0  0  0
    3.2729    1.0198   31.0325 H   0  0  0  0  0  0  0  0  0  0  0  0
    4.4427   -0.6961   30.3538 H   0  0  0  0  0  0  0  0  0  0  0  0
    1.2848   -0.9990   28.1822 H   0  0  0  0  0  0  0  0  0  0  0  0
    0.7680    0.6446   28.3308 H   0  0  0  0  0  0  0  0  0  0  0  0
   -0.7707   -1.6925   27.5027 H   0  0  0  0  0  0  0  0  0  0  0  0
   -0.8892   -0.0273   27.0050 H   0  0  0  0  0  0  0  0  0  0  0  0
   -2.7936    0.1229   28.0623 H   0  0  0  0  0  0  0  0  0  0  0  0
   -2.8350   -2.3325   28.0034 H   0  0  0  0  0  0  0  0  0  0  0  0
   -3.7115   -1.6433   29.1844 H   0  0  0  0  0  0  0  0  0  0  0  0
   -2.1698   -0.9829   30.5220 H   0  0  0  0  0  0  0  0  0  0  0  0
   -0.6917    1.4321   29.8244 H   0  0  0  0  0  0  0  0  0  0  0  0
   -0.9168    0.8249   31.4262 H   0  0  0  0  0  0  0  0  0  0  0  0
  1  2  2  0
  2  3  1  0
  3  4  1  0
  4  5  1  0
  5  6  2  0
  6  7  1  0
  7  8  2  0
  8  9  1  0
  9 10  1  0
 10 11  1  0
  8 12  1  0
 12 13  1  0
 12 14  2  0
  3 15  1  0
 15 16  1  0
 16 17  1  0
 16 18  1  0
 18 19  1  0
 19 20  1  0
 20 21  1  0
 19 22  1  0
 22 23  1  0
 23 24  1  0
 24 25  1  0
 25 26  1  0
 25 27  1  0
 27 28  1  0
 14  5  1  0
 22 15  1  0
 28 22  1  0
  1 29  1  0
  1 30  1  0
  2 31  1  0
  3 32  1  0
  4 33  1  0
  4 34  1  0
  7 35  1  0
  9 36  1  0
  9 37  1  0
 10 38  1  0
 10 39  1  0
 11 40  1  0
 11 41  1  0
 11 42  1  0
 13 43  1  0
 16 44  1  0
 17 45  1  0
 18 46  1  0
 20 47  1  0
 20 48  1  0
 21 49  1  0
 23 50  1  0
 23 51  1  0
 24 52  1  0
 24 53  1  0
 25 54  1  0
 26 55  1  0
 26 56  1  0
 27 57  1  0
 28 58  1  0
 28 59  1  0
M  END
>  <Energy>  (143) 
-36.939019816730209

>  <compound_id>  (143) 
254

>  <target_id>  (143) 
1

>  <reference_id>  (143) 
199

>  <inspiration_ids>  (143) 
[199, 156]

>  <energy_score>  (143) 
-66.19183187541401

>  <distance_score>  (143) 
1.8918116972883774

>  <path>  (143) 
/opt/xchem-fragalysis-2/maxwin/BulkDock/SCRATCH/505737/C254-P199/C254-P199.minimised.mol

>  <scratch_subdir>  (143) 
/opt/xchem-fragalysis-2/maxwin/BulkDock/SCRATCH/505737/C254-P199

>  <fragmenstein_runtime>  (143) 
3.647127389907837

>  <fragmenstein_outcome>  (143) 
too moved

>  <fragmenstein_mode>  (143) 
expansion

>  <fragmenstein_error>  (143) 


$$$$
C254-P156
     RDKit          3D

 59 61  0  0  0  0  0  0  0  0999 V2000
   -0.6352   -4.0041   28.9740 C   0  0  0  0  0  0  0  0  0  0  0  0
    0.6684   -3.7531   28.9851 C   0  0  0  0  0  0  0  0  0  0  0  0
    1.3816   -3.1361   30.1378 C   0  0  0  0  0  0  0  0  0  0  0  0
    2.0526   -4.3871   30.7908 C   0  0  0  0  0  0  0  0  0  0  0  0
    1.2630   -5.2700   31.7189 C   0  0  0  0  0  0  0  0  0  0  0  0
    1.6632   -5.1704   32.9904 N   0  0  0  0  0  0  0  0  0  0  0  0
    0.9686   -5.8547   33.8956 C   0  0  0  0  0  0  0  0  0  0  0  0
   -0.0992   -6.6768   33.6115 C   0  0  0  0  0  0  0  0  0  0  0  0
   -0.8979   -7.2922   34.7219 C   0  0  0  0  0  0  0  0  0  0  0  0
   -0.6707   -6.6645   36.1087 C   0  0  0  0  0  0  0  0  0  0  0  0
    0.4640   -7.3018   36.9006 C   0  0  0  0  0  0  0  0  0  0  0  0
   -0.3400   -6.8240   32.2551 C   0  0  0  0  0  0  0  0  0  0  0  0
   -1.2813   -7.6969   31.7699 O   0  0  0  0  0  0  0  0  0  0  0  0
    0.3248   -6.1424   31.2964 N   0  0  0  0  0  0  0  0  0  0  0  0
    0.5208   -2.1579   30.8513 N   0  0  0  0  0  0  0  0  0  0  0  0
    0.8008   -2.0245   32.2640 C   0  0  0  0  0  0  0  0  0  0  0  0
   -0.6588   -2.4747   33.2525 S   0  0  0  0  0  0  0  0  0  0  0  0
    1.0943   -0.6244   32.5616 N   0  0  0  0  0  0  0  0  0  0  0  0
    1.2648    0.0526   31.2852 N   0  0  0  0  0  0  0  0  0  0  0  0
    2.6846    0.2853   31.0418 C   0  0  0  0  0  0  0  0  0  0  0  0
    3.4614   -0.8988   30.9336 O   0  0  0  0  0  0  0  0  0  0  0  0
    0.4922   -0.7539   30.3182 C   0  0  0  0  0  0  0  0  0  0  0  0
    0.8519   -0.5102   28.8144 C   0  0  0  0  0  0  0  0  0  0  0  0
   -0.1055    0.4586   28.1295 C   0  0  0  0  0  0  0  0  0  0  0  0
   -1.5375   -0.0544   28.2296 C   0  0  0  0  0  0  0  0  0  0  0  0
   -1.7022   -1.2580   27.4982 N   0  0  0  0  0  0  0  0  0  0  0  0
   -1.9216   -0.5265   29.5321 N   0  0  0  0  0  0  0  0  0  0  0  0
   -0.9614   -0.1496   30.5468 C   0  0  0  0  0  0  0  0  0  0  0  0
   -1.2852   -3.7256   29.7922 H   0  0  0  0  0  0  0  0  0  0  0  0
   -1.0536   -4.5123   28.1269 H   0  0  0  0  0  0  0  0  0  0  0  0
    1.2812   -4.0690   28.1501 H   0  0  0  0  0  0  0  0  0  0  0  0
    2.2246   -2.5819   29.7091 H   0  0  0  0  0  0  0  0  0  0  0  0
    2.9276   -4.0177   31.3465 H   0  0  0  0  0  0  0  0  0  0  0  0
    2.4904   -5.0411   30.0217 H   0  0  0  0  0  0  0  0  0  0  0  0
    1.3211   -5.6626   34.9027 H   0  0  0  0  0  0  0  0  0  0  0  0
   -0.6891   -8.3596   34.7669 H   0  0  0  0  0  0  0  0  0  0  0  0
   -1.9577   -7.1716   34.4800 H   0  0  0  0  0  0  0  0  0  0  0  0
   -0.5407   -5.5775   36.0512 H   0  0  0  0  0  0  0  0  0  0  0  0
   -1.5703   -6.7989   36.6919 H   0  0  0  0  0  0  0  0  0  0  0  0
    0.6337   -6.7432   37.8267 H   0  0  0  0  0  0  0  0  0  0  0  0
    1.4040   -7.3343   36.3449 H   0  0  0  0  0  0  0  0  0  0  0  0
    0.2051   -8.3250   37.1799 H   0  0  0  0  0  0  0  0  0  0  0  0
   -1.6632   -8.1879   32.5125 H   0  0  0  0  0  0  0  0  0  0  0  0
    1.6549   -2.6049   32.6140 H   0  0  0  0  0  0  0  0  0  0  0  0
    0.0059   -2.5851   34.4089 H   0  0  0  0  0  0  0  0  0  0  0  0
    0.2612   -0.2721   33.0338 H   0  0  0  0  0  0  0  0  0  0  0  0
    2.8432    0.9013   30.1514 H   0  0  0  0  0  0  0  0  0  0  0  0
    3.0926    0.8738   31.8739 H   0  0  0  0  0  0  0  0  0  0  0  0
    4.3849   -0.6129   31.0235 H   0  0  0  0  0  0  0  0  0  0  0  0
    0.8199   -1.4347   28.2395 H   0  0  0  0  0  0  0  0  0  0  0  0
    1.8797   -0.1671   28.6745 H   0  0  0  0  0  0  0  0  0  0  0  0
    0.1840    0.5885   27.0833 H   0  0  0  0  0  0  0  0  0  0  0  0
   -0.0187    1.4524   28.5870 H   0  0  0  0  0  0  0  0  0  0  0  0
   -2.2014    0.7285   27.8547 H   0  0  0  0  0  0  0  0  0  0  0  0
   -1.5374   -1.1206   26.4968 H   0  0  0  0  0  0  0  0  0  0  0  0
   -2.6455   -1.6259   27.5665 H   0  0  0  0  0  0  0  0  0  0  0  0
   -1.8441   -1.5437   29.4433 H   0  0  0  0  0  0  0  0  0  0  0  0
   -0.9117    0.9443   30.5994 H   0  0  0  0  0  0  0  0  0  0  0  0
   -1.3928   -0.4376   31.5085 H   0  0  0  0  0  0  0  0  0  0  0  0
  1  2  2  0
  2  3  1  0
  3  4  1  0
  4  5  1  0
  5  6  2  0
  6  7  1  0
  7  8  2  0
  8  9  1  0
  9 10  1  0
 10 11  1  0
  8 12  1  0
 12 13  1  0
 12 14  2  0
  3 15  1  0
 15 16  1  0
 16 17  1  0
 16 18  1  0
 18 19  1  0
 19 20  1  0
 20 21  1  0
 19 22  1  0
 22 23  1  0
 23 24  1  0
 24 25  1  0
 25 26  1  0
 25 27  1  0
 27 28  1  0
 14  5  1  0
 22 15  1  0
 28 22  1  0
  1 29  1  0
  1 30  1  0
  2 31  1  0
  3 32  1  0
  4 33  1  0
  4 34  1  0
  7 35  1  0
  9 36  1  0
  9 37  1  0
 10 38  1  0
 10 39  1  0
 11 40  1  0
 11 41  1  0
 11 42  1  0
 13 43  1  0
 16 44  1  0
 17 45  1  0
 18 46  1  0
 20 47  1  0
 20 48  1  0
 21 49  1  0
 23 50  1  0
 23 51  1  0
 24 52  1  0
 24 53  1  0
 25 54  1  0
 26 55  1  0
 26 56  1  0
 27 57  1  0
 28 58  1  0
 28 59  1  0
M  END
>  <Energy>  (144) 
-61.080752959900707

>  <compound_id>  (144) 
254

>  <target_id>  (144) 
1

>  <reference_id>  (144) 
156

>  <inspiration_ids>  (144) 
[199, 156]

>  <energy_score>  (144) 
-90.33356501858388

>  <distance_score>  (144) 
2.198912301219474

>  <path>  (144) 
/opt/xchem-fragalysis-2/maxwin/BulkDock/SCRATCH/505737/C254-P156/C254-P156.minimised.mol

>  <scratch_subdir>  (144) 
/opt/xchem-fragalysis-2/maxwin/BulkDock/SCRATCH/505737/C254-P156

>  <fragmenstein_runtime>  (144) 
4.272509336471558

>  <fragmenstein_outcome>  (144) 
too moved

>  <fragmenstein_mode>  (144) 
expansion

>  <fragmenstein_error>  (144) 


$$$$
C255-P199
     RDKit          3D

 76 78  0  0  0  0  0  0  0  0999 V2000
    5.8183   -4.8036   33.5257 C   0  0  0  0  0  0  0  0  0  0  0  0
    5.2501   -4.2009   32.2511 C   0  0  0  0  0  0  0  0  0  0  0  0
    3.8425   -3.6491   32.3760 C   0  0  0  0  0  0  0  0  0  0  0  0
    2.7305   -4.6172   32.5538 C   0  0  0  0  0  0  0  0  0  0  0  0
    1.9499   -5.0546   31.5005 C   0  0  0  0  0  0  0  0  0  0  0  0
    0.7728   -5.6710   31.6623 N   0  0  0  0  0  0  0  0  0  0  0  0
    0.4061   -5.7816   32.9444 C   0  0  0  0  0  0  0  0  0  0  0  0
   -0.9098   -5.1655   33.2503 C   0  0  0  0  0  0  0  0  0  0  0  0
   -0.9853   -3.5794   32.8646 C   0  0  0  0  0  0  0  0  0  0  0  0
   -1.7960   -3.2563   31.5619 C   0  0  0  0  0  0  0  0  0  0  0  0
   -1.1978   -2.5006   30.3418 C   0  0  0  0  0  0  0  0  0  0  0  0
   -1.2499   -1.0734   30.0864 N   0  0  0  0  0  0  0  0  0  0  0  0
   -1.8280   -0.4412   28.9964 C   0  0  0  0  0  0  0  0  0  0  0  0
   -2.4924   -1.1437   27.6015 S   0  0  0  0  0  0  0  0  0  0  0  0
   -1.6237    0.8417   29.0254 N   0  0  0  0  0  0  0  0  0  0  0  0
   -0.7410    1.0654   30.0125 N   0  0  0  0  0  0  0  0  0  0  0  0
   -0.4112   -0.0831   30.5606 C   0  0  0  0  0  0  0  0  0  0  0  0
    0.8228   -0.1625   31.3724 C   0  0  0  0  0  0  0  0  0  0  0  0
    1.6837   -1.3931   31.1435 C   0  0  0  0  0  0  0  0  0  0  0  0
    2.2444   -1.5372   29.7171 C   0  0  0  0  0  0  0  0  0  0  0  0
    1.6052   -2.5251   28.7529 C   0  0  0  0  0  0  0  0  0  0  0  0
    0.6285    0.3337   32.8249 C   0  0  0  0  0  0  0  0  0  0  0  0
    0.8080   -0.6744   33.9632 C   0  0  0  0  0  0  0  0  0  0  0  0
   -0.3442   -0.6786   34.9801 C   0  0  0  0  0  0  0  0  0  0  0  0
    0.0040   -1.5119   36.2300 C   0  0  0  0  0  0  0  0  0  0  0  0
    1.1349   -0.9312   36.9746 N   0  0  0  0  0  0  0  0  0  0  0  0
    1.7124   -1.7794   37.9977 C   0  0  0  0  0  0  0  0  0  0  0  0
    0.7710   -2.7104   38.7565 C   0  0  0  0  0  0  0  0  0  0  0  0
    2.7439   -2.5173   37.3114 N   0  0  0  0  0  0  0  0  0  0  0  0
   -1.8928   -1.3124   34.2737 S   0  0  0  0  0  0  0  0  0  0  0  0
   -2.1662   -0.7167   32.9893 O   0  0  0  0  0  0  0  0  0  0  0  0
   -2.9033   -1.2608   35.3107 O   0  0  0  0  0  0  0  0  0  0  0  0
   -1.6064   -2.9221   34.0397 N   0  0  0  0  0  0  0  0  0  0  0  0
    1.2282   -5.7543   33.9965 N   0  0  0  0  0  0  0  0  0  0  0  0
    2.3462   -5.0913   33.7776 C   0  0  0  0  0  0  0  0  0  0  0  0
    3.0350   -4.8099   34.9071 O   0  0  0  0  0  0  0  0  0  0  0  0
    6.8711   -5.0659   33.3777 H   0  0  0  0  0  0  0  0  0  0  0  0
    5.2920   -5.7169   33.8125 H   0  0  0  0  0  0  0  0  0  0  0  0
    5.7643   -4.0921   34.3557 H   0  0  0  0  0  0  0  0  0  0  0  0
    5.9088   -3.3707   31.9632 H   0  0  0  0  0  0  0  0  0  0  0  0
    5.3203   -4.9260   31.4356 H   0  0  0  0  0  0  0  0  0  0  0  0
    3.6678   -3.1100   31.4465 H   0  0  0  0  0  0  0  0  0  0  0  0
    3.8041   -2.8903   33.1682 H   0  0  0  0  0  0  0  0  0  0  0  0
    2.2435   -4.8718   30.4739 H   0  0  0  0  0  0  0  0  0  0  0  0
   -1.6057   -5.7921   32.7160 H   0  0  0  0  0  0  0  0  0  0  0  0
   -1.0463   -5.3070   34.3288 H   0  0  0  0  0  0  0  0  0  0  0  0
    0.0268   -3.2107   32.7749 H   0  0  0  0  0  0  0  0  0  0  0  0
   -1.8803   -4.2411   31.1090 H   0  0  0  0  0  0  0  0  0  0  0  0
   -2.8095   -2.9007   31.7740 H   0  0  0  0  0  0  0  0  0  0  0  0
   -0.1778   -2.8297   30.2687 H   0  0  0  0  0  0  0  0  0  0  0  0
   -1.6713   -2.9609   29.4670 H   0  0  0  0  0  0  0  0  0  0  0  0
   -2.3629   -0.0846   26.7918 H   0  0  0  0  0  0  0  0  0  0  0  0
    1.4397    0.6485   30.9447 H   0  0  0  0  0  0  0  0  0  0  0  0
    2.5601   -1.2392   31.7876 H   0  0  0  0  0  0  0  0  0  0  0  0
    1.2424   -2.3171   31.4867 H   0  0  0  0  0  0  0  0  0  0  0  0
    3.2966   -1.8352   29.8034 H   0  0  0  0  0  0  0  0  0  0  0  0
    2.2830   -0.5564   29.2263 H   0  0  0  0  0  0  0  0  0  0  0  0
    0.6733   -2.1349   28.3412 H   0  0  0  0  0  0  0  0  0  0  0  0
    1.4358   -3.5083   29.1820 H   0  0  0  0  0  0  0  0  0  0  0  0
    2.2809   -2.6695   27.9028 H   0  0  0  0  0  0  0  0  0  0  0  0
    1.3990    1.1026   32.9927 H   0  0  0  0  0  0  0  0  0  0  0  0
   -0.3070    0.8961   32.9245 H   0  0  0  0  0  0  0  0  0  0  0  0
    0.9892   -1.6828   33.6035 H   0  0  0  0  0  0  0  0  0  0  0  0
    1.7348   -0.3975   34.4827 H   0  0  0  0  0  0  0  0  0  0  0  0
   -0.5715    0.3512   35.2849 H   0  0  0  0  0  0  0  0  0  0  0  0
   -0.8663   -1.5708   36.8935 H   0  0  0  0  0  0  0  0  0  0  0  0
    0.2456   -2.5336   35.9139 H   0  0  0  0  0  0  0  0  0  0  0  0
    0.8066   -0.0771   37.4293 H   0  0  0  0  0  0  0  0  0  0  0  0
    2.2056   -1.1343   38.7342 H   0  0  0  0  0  0  0  0  0  0  0  0
   -0.0341   -2.1422   39.2349 H   0  0  0  0  0  0  0  0  0  0  0  0
    0.3169   -3.4698   38.1104 H   0  0  0  0  0  0  0  0  0  0  0  0
    1.3142   -3.2413   39.5469 H   0  0  0  0  0  0  0  0  0  0  0  0
    3.3457   -1.8242   36.8694 H   0  0  0  0  0  0  0  0  0  0  0  0
    2.3205   -3.0111   36.5316 H   0  0  0  0  0  0  0  0  0  0  0  0
   -2.3457   -3.4957   34.4814 H   0  0  0  0  0  0  0  0  0  0  0  0
    2.5162   -5.2890   35.5802 H   0  0  0  0  0  0  0  0  0  0  0  0
  1  2  1  0
  2  3  1  0
  3  4  1  0
  4  5  2  0
  5  6  1  0
  6  7  2  0
  7  8  1  0
  8  9  1  0
  9 10  1  0
 10 11  1  0
 11 12  1  0
 12 13  1  0
 13 14  1  0
 13 15  2  0
 15 16  1  0
 16 17  2  0
 17 18  1  0
 18 19  1  0
 19 20  1  0
 20 21  1  0
 18 22  1  0
 22 23  1  0
 23 24  1  0
 24 25  1  0
 25 26  1  0
 26 27  1  0
 27 28  1  0
 27 29  1  0
 24 30  1  0
 30 31  2  0
 30 32  2  0
 30 33  1  0
  7 34  1  0
 34 35  2  0
 35 36  1  0
 35  4  1  0
 33  9  1  0
 17 12  1  0
  1 37  1  0
  1 38  1  0
  1 39  1  0
  2 40  1  0
  2 41  1  0
  3 42  1  0
  3 43  1  0
  5 44  1  0
  8 45  1  0
  8 46  1  0
  9 47  1  0
 10 48  1  0
 10 49  1  0
 11 50  1  0
 11 51  1  0
 14 52  1  0
 18 53  1  0
 19 54  1  0
 19 55  1  0
 20 56  1  0
 20 57  1  0
 21 58  1  0
 21 59  1  0
 21 60  1  0
 22 61  1  0
 22 62  1  0
 23 63  1  0
 23 64  1  0
 24 65  1  0
 25 66  1  0
 25 67  1  0
 26 68  1  0
 27 69  1  0
 28 70  1  0
 28 71  1  0
 28 72  1  0
 29 73  1  0
 29 74  1  0
 33 75  1  0
 36 76  1  0
M  END
>  <Energy>  (145) 
-87.541999603653863

>  <compound_id>  (145) 
255

>  <target_id>  (145) 
1

>  <reference_id>  (145) 
199

>  <inspiration_ids>  (145) 
[199, 157]

>  <energy_score>  (145) 
-37.229772532036804

>  <distance_score>  (145) 
2.563205455171334

>  <path>  (145) 
/opt/xchem-fragalysis-2/maxwin/BulkDock/SCRATCH/505737/C255-P199/C255-P199.minimised.mol

>  <scratch_subdir>  (145) 
/opt/xchem-fragalysis-2/maxwin/BulkDock/SCRATCH/505737/C255-P199

>  <fragmenstein_runtime>  (145) 
9.290373802185059

>  <fragmenstein_outcome>  (145) 
too moved

>  <fragmenstein_mode>  (145) 
expansion

>  <fragmenstein_error>  (145) 


$$$$
C255-P157
     RDKit          3D

 76 78  0  0  0  0  0  0  0  0999 V2000
    5.3956   -5.2946   34.1798 C   0  0  0  0  0  0  0  0  0  0  0  0
    5.0782   -4.5514   32.8930 C   0  0  0  0  0  0  0  0  0  0  0  0
    3.6657   -4.0144   32.7992 C   0  0  0  0  0  0  0  0  0  0  0  0
    2.5206   -4.9675   32.8369 C   0  0  0  0  0  0  0  0  0  0  0  0
    1.9059   -5.4183   31.6917 C   0  0  0  0  0  0  0  0  0  0  0  0
    0.6445   -5.8719   31.6763 N   0  0  0  0  0  0  0  0  0  0  0  0
    0.0162   -5.8134   32.8598 C   0  0  0  0  0  0  0  0  0  0  0  0
   -1.2932   -5.0858   32.8203 C   0  0  0  0  0  0  0  0  0  0  0  0
   -1.1708   -3.5112   33.0822 C   0  0  0  0  0  0  0  0  0  0  0  0
   -2.0314   -2.5875   32.1387 C   0  0  0  0  0  0  0  0  0  0  0  0
   -1.5411   -2.3933   30.6697 C   0  0  0  0  0  0  0  0  0  0  0  0
   -1.2028   -1.0325   30.2330 N   0  0  0  0  0  0  0  0  0  0  0  0
   -1.5223   -0.3890   29.0615 C   0  0  0  0  0  0  0  0  0  0  0  0
   -2.0108   -1.1179   27.6195 S   0  0  0  0  0  0  0  0  0  0  0  0
   -1.1852    0.8673   29.1050 N   0  0  0  0  0  0  0  0  0  0  0  0
   -0.4072    1.0145   30.1983 N   0  0  0  0  0  0  0  0  0  0  0  0
   -0.2893   -0.1582   30.7772 C   0  0  0  0  0  0  0  0  0  0  0  0
    0.8102   -0.4627   31.7162 C   0  0  0  0  0  0  0  0  0  0  0  0
    1.5276   -1.7653   31.3654 C   0  0  0  0  0  0  0  0  0  0  0  0
    2.0621   -1.8911   29.9318 C   0  0  0  0  0  0  0  0  0  0  0  0
    1.4054   -2.9480   29.0504 C   0  0  0  0  0  0  0  0  0  0  0  0
    0.3508   -0.2399   33.1722 C   0  0  0  0  0  0  0  0  0  0  0  0
    0.9718   -1.1232   34.2544 C   0  0  0  0  0  0  0  0  0  0  0  0
    0.1635   -1.1753   35.5654 C   0  0  0  0  0  0  0  0  0  0  0  0
    0.9094   -1.9665   36.6578 C   0  0  0  0  0  0  0  0  0  0  0  0
    2.2044   -1.3434   36.9824 N   0  0  0  0  0  0  0  0  0  0  0  0
    3.0941   -2.1326   37.8092 C   0  0  0  0  0  0  0  0  0  0  0  0
    2.4670   -3.0495   38.8549 C   0  0  0  0  0  0  0  0  0  0  0  0
    3.8926   -2.8705   36.8653 N   0  0  0  0  0  0  0  0  0  0  0  0
   -1.5285   -1.8550   35.3963 S   0  0  0  0  0  0  0  0  0  0  0  0
   -2.3643   -0.9222   34.6747 O   0  0  0  0  0  0  0  0  0  0  0  0
   -1.9693   -2.2739   36.7127 O   0  0  0  0  0  0  0  0  0  0  0  0
   -1.4319   -3.2774   34.5371 N   0  0  0  0  0  0  0  0  0  0  0  0
    0.6289   -5.7818   34.0429 N   0  0  0  0  0  0  0  0  0  0  0  0
    1.8646   -5.3069   33.9922 C   0  0  0  0  0  0  0  0  0  0  0  0
    2.3745   -5.0350   35.2161 O   0  0  0  0  0  0  0  0  0  0  0  0
    6.4419   -5.6173   34.1769 H   0  0  0  0  0  0  0  0  0  0  0  0
    4.7748   -6.1857   34.3000 H   0  0  0  0  0  0  0  0  0  0  0  0
    5.2499   -4.6499   35.0503 H   0  0  0  0  0  0  0  0  0  0  0  0
    5.7688   -3.7007   32.8215 H   0  0  0  0  0  0  0  0  0  0  0  0
    5.3143   -5.1829   32.0351 H   0  0  0  0  0  0  0  0  0  0  0  0
    3.6253   -3.4794   31.8461 H   0  0  0  0  0  0  0  0  0  0  0  0
    3.5200   -3.2459   33.5696 H   0  0  0  0  0  0  0  0  0  0  0  0
    2.3789   -5.3219   30.7196 H   0  0  0  0  0  0  0  0  0  0  0  0
   -1.6678   -5.2365   31.8093 H   0  0  0  0  0  0  0  0  0  0  0  0
   -1.9203   -5.5992   33.5427 H   0  0  0  0  0  0  0  0  0  0  0  0
   -0.1355   -3.2567   32.9432 H   0  0  0  0  0  0  0  0  0  0  0  0
   -3.0596   -2.9558   32.1139 H   0  0  0  0  0  0  0  0  0  0  0  0
   -2.1396   -1.5932   32.5564 H   0  0  0  0  0  0  0  0  0  0  0  0
   -0.7040   -3.0501   30.4591 H   0  0  0  0  0  0  0  0  0  0  0  0
   -2.3390   -2.7365   30.0109 H   0  0  0  0  0  0  0  0  0  0  0  0
   -1.7672   -0.0934   26.7915 H   0  0  0  0  0  0  0  0  0  0  0  0
    1.5715    0.3164   31.5478 H   0  0  0  0  0  0  0  0  0  0  0  0
    2.4061   -1.7733   32.0182 H   0  0  0  0  0  0  0  0  0  0  0  0
    0.9709   -2.6560   31.6023 H   0  0  0  0  0  0  0  0  0  0  0  0
    3.1236   -2.1628   30.0012 H   0  0  0  0  0  0  0  0  0  0  0  0
    2.0485   -0.9252   29.4136 H   0  0  0  0  0  0  0  0  0  0  0  0
    1.1978   -3.8751   29.5793 H   0  0  0  0  0  0  0  0  0  0  0  0
    2.0707   -3.1879   28.2140 H   0  0  0  0  0  0  0  0  0  0  0  0
    0.4784   -2.5815   28.6121 H   0  0  0  0  0  0  0  0  0  0  0  0
    0.5614    0.8070   33.4371 H   0  0  0  0  0  0  0  0  0  0  0  0
   -0.7315   -0.2850   33.2078 H   0  0  0  0  0  0  0  0  0  0  0  0
    1.1439   -2.1422   33.9158 H   0  0  0  0  0  0  0  0  0  0  0  0
    1.9726   -0.7199   34.4545 H   0  0  0  0  0  0  0  0  0  0  0  0
    0.0032   -0.1492   35.9234 H   0  0  0  0  0  0  0  0  0  0  0  0
    0.3075   -2.0043   37.5720 H   0  0  0  0  0  0  0  0  0  0  0  0
    1.0460   -2.9955   36.3100 H   0  0  0  0  0  0  0  0  0  0  0  0
    2.0158   -0.4717   37.4810 H   0  0  0  0  0  0  0  0  0  0  0  0
    3.7654   -1.4419   38.3328 H   0  0  0  0  0  0  0  0  0  0  0  0
    1.8319   -2.4783   39.5407 H   0  0  0  0  0  0  0  0  0  0  0  0
    1.8601   -3.8447   38.4081 H   0  0  0  0  0  0  0  0  0  0  0  0
    3.2461   -3.5346   39.4542 H   0  0  0  0  0  0  0  0  0  0  0  0
    4.1780   -2.2008   36.1543 H   0  0  0  0  0  0  0  0  0  0  0  0
    3.2972   -3.5350   36.3718 H   0  0  0  0  0  0  0  0  0  0  0  0
   -2.2346   -3.8479   34.8571 H   0  0  0  0  0  0  0  0  0  0  0  0
    1.6710   -5.4026   35.7859 H   0  0  0  0  0  0  0  0  0  0  0  0
  1  2  1  0
  2  3  1  0
  3  4  1  0
  4  5  2  0
  5  6  1  0
  6  7  2  0
  7  8  1  0
  8  9  1  0
  9 10  1  0
 10 11  1  0
 11 12  1  0
 12 13  1  0
 13 14  1  0
 13 15  2  0
 15 16  1  0
 16 17  2  0
 17 18  1  0
 18 19  1  0
 19 20  1  0
 20 21  1  0
 18 22  1  0
 22 23  1  0
 23 24  1  0
 24 25  1  0
 25 26  1  0
 26 27  1  0
 27 28  1  0
 27 29  1  0
 24 30  1  0
 30 31  2  0
 30 32  2  0
 30 33  1  0
  7 34  1  0
 34 35  2  0
 35 36  1  0
 35  4  1  0
 33  9  1  0
 17 12  1  0
  1 37  1  0
  1 38  1  0
  1 39  1  0
  2 40  1  0
  2 41  1  0
  3 42  1  0
  3 43  1  0
  5 44  1  0
  8 45  1  0
  8 46  1  0
  9 47  1  0
 10 48  1  0
 10 49  1  0
 11 50  1  0
 11 51  1  0
 14 52  1  0
 18 53  1  0
 19 54  1  0
 19 55  1  0
 20 56  1  0
 20 57  1  0
 21 58  1  0
 21 59  1  0
 21 60  1  0
 22 61  1  0
 22 62  1  0
 23 63  1  0
 23 64  1  0
 24 65  1  0
 25 66  1  0
 25 67  1  0
 26 68  1  0
 27 69  1  0
 28 70  1  0
 28 71  1  0
 28 72  1  0
 29 73  1  0
 29 74  1  0
 33 75  1  0
 36 76  1  0
M  END
>  <Energy>  (146) 
-98.739762269126615

>  <compound_id>  (146) 
255

>  <target_id>  (146) 
1

>  <reference_id>  (146) 
157

>  <inspiration_ids>  (146) 
[199, 157]

>  <energy_score>  (146) 
-48.42753519751312

>  <distance_score>  (146) 
2.4726779907963543

>  <path>  (146) 
/opt/xchem-fragalysis-2/maxwin/BulkDock/SCRATCH/505737/C255-P157/C255-P157.minimised.mol

>  <scratch_subdir>  (146) 
/opt/xchem-fragalysis-2/maxwin/BulkDock/SCRATCH/505737/C255-P157

>  <fragmenstein_runtime>  (146) 
8.683265686035156

>  <fragmenstein_outcome>  (146) 
too moved

>  <fragmenstein_mode>  (146) 
expansion

>  <fragmenstein_error>  (146) 


$$$$
C233-P199
     RDKit          3D

 53 56  0  0  0  0  0  0  0  0999 V2000
   -2.0402    1.7079   26.6595 N   0  0  0  0  0  0  0  0  0  0  0  0
   -1.7291    0.8400   27.7020 C   0  0  0  0  0  0  0  0  0  0  0  0
   -0.7933    1.1820   28.6668 C   0  0  0  0  0  0  0  0  0  0  0  0
   -0.5657    0.3037   29.7252 C   0  0  0  0  0  0  0  0  0  0  0  0
   -1.2651   -0.8982   29.7566 C   0  0  0  0  0  0  0  0  0  0  0  0
   -1.1312   -1.9896   31.1153 S   0  0  0  0  0  0  0  0  0  0  0  0
   -2.2536   -2.9062   31.1232 O   0  0  0  0  0  0  0  0  0  0  0  0
   -0.8478   -1.1851   32.2844 O   0  0  0  0  0  0  0  0  0  0  0  0
    0.2672   -2.8449   30.7602 N   0  0  0  0  0  0  0  0  0  0  0  0
    0.1761   -4.0364   29.8976 C   0  0  0  0  0  0  0  0  0  0  0  0
    1.2310   -5.0714   30.2981 C   0  0  0  0  0  0  0  0  0  0  0  0
    1.0413   -5.6998   31.6882 C   0  0  0  0  0  0  0  0  0  0  0  0
   -0.1180   -6.5986   31.8079 N   0  0  0  0  0  0  0  0  0  0  0  0
   -0.5741   -6.4183   33.2038 C   0  0  0  0  0  0  0  0  0  0  0  0
    0.3490   -7.5317   34.3047 S   0  0  0  0  0  0  0  0  0  0  0  0
   -0.6597   -7.4714   35.8261 C   0  0  0  0  0  0  0  0  0  0  0  0
    0.0390   -7.1092   37.1323 C   0  0  0  0  0  0  0  0  0  0  0  0
    1.0346   -7.9086   37.6942 C   0  0  0  0  0  0  0  0  0  0  0  0
    1.4536   -7.6757   38.9974 C   0  0  0  0  0  0  0  0  0  0  0  0
    0.9626   -6.6955   39.7819 N   0  0  0  0  0  0  0  0  0  0  0  0
    0.0285   -5.9026   39.2258 C   0  0  0  0  0  0  0  0  0  0  0  0
   -0.4438   -6.0620   37.9291 C   0  0  0  0  0  0  0  0  0  0  0  0
   -0.3676   -4.9174   33.3705 C   0  0  0  0  0  0  0  0  0  0  0  0
   -0.1588   -4.2717   34.7121 C   0  0  0  0  0  0  0  0  0  0  0  0
    1.2908   -4.1759   34.9234 N   0  0  0  0  0  0  0  0  0  0  0  0
    1.9025   -4.7251   33.7436 N   0  0  0  0  0  0  0  0  0  0  0  0
    0.9109   -4.6484   32.6981 N   0  0  0  0  0  0  0  0  0  0  0  0
   -2.1496   -1.1789   28.7405 C   0  0  0  0  0  0  0  0  0  0  0  0
   -2.3932   -0.3231   27.7222 N   0  0  0  0  0  0  0  0  0  0  0  0
   -2.7884    1.2485   26.1390 H   0  0  0  0  0  0  0  0  0  0  0  0
   -2.3685    2.6006   27.0175 H   0  0  0  0  0  0  0  0  0  0  0  0
   -0.2641    2.1271   28.6079 H   0  0  0  0  0  0  0  0  0  0  0  0
    0.1404    0.5627   30.5095 H   0  0  0  0  0  0  0  0  0  0  0  0
    0.8276   -2.9615   31.6190 H   0  0  0  0  0  0  0  0  0  0  0  0
    0.3423   -3.7195   28.8627 H   0  0  0  0  0  0  0  0  0  0  0  0
   -0.8111   -4.4945   29.9498 H   0  0  0  0  0  0  0  0  0  0  0  0
    1.2497   -5.8734   29.5537 H   0  0  0  0  0  0  0  0  0  0  0  0
    2.2207   -4.5962   30.2593 H   0  0  0  0  0  0  0  0  0  0  0  0
    1.9239   -6.2969   31.8994 H   0  0  0  0  0  0  0  0  0  0  0  0
    0.1932   -7.5652   31.7210 H   0  0  0  0  0  0  0  0  0  0  0  0
   -1.6205   -6.7047   33.2619 H   0  0  0  0  0  0  0  0  0  0  0  0
   -1.0996   -8.4623   35.9614 H   0  0  0  0  0  0  0  0  0  0  0  0
   -1.5064   -6.8001   35.6617 H   0  0  0  0  0  0  0  0  0  0  0  0
    1.4548   -8.7394   37.1500 H   0  0  0  0  0  0  0  0  0  0  0  0
    2.2038   -8.3099   39.4608 H   0  0  0  0  0  0  0  0  0  0  0  0
   -0.3615   -5.1183   39.8689 H   0  0  0  0  0  0  0  0  0  0  0  0
   -1.2311   -5.4002   37.5870 H   0  0  0  0  0  0  0  0  0  0  0  0
   -1.1623   -4.3926   32.8364 H   0  0  0  0  0  0  0  0  0  0  0  0
   -0.6709   -4.7733   35.5254 H   0  0  0  0  0  0  0  0  0  0  0  0
   -0.5453   -3.2448   34.6928 H   0  0  0  0  0  0  0  0  0  0  0  0
    1.5666   -4.6665   35.7771 H   0  0  0  0  0  0  0  0  0  0  0  0
    2.1901   -5.6967   33.9290 H   0  0  0  0  0  0  0  0  0  0  0  0
   -2.7300   -2.0941   28.7092 H   0  0  0  0  0  0  0  0  0  0  0  0
  1  2  1  0
  2  3  2  0
  3  4  1  0
  4  5  2  0
  5  6  1  0
  6  7  2  0
  6  8  2  0
  6  9  1  0
  9 10  1  0
 10 11  1  0
 11 12  1  0
 12 13  1  0
 13 14  1  0
 14 15  1  0
 15 16  1  0
 16 17  1  0
 17 18  2  0
 18 19  1  0
 19 20  2  0
 20 21  1  0
 21 22  2  0
 14 23  1  0
 23 24  1  0
 24 25  1  0
 25 26  1  0
 26 27  1  0
  5 28  1  0
 28 29  2  0
 29  2  1  0
 27 12  1  0
 22 17  1  0
 27 23  1  0
  1 30  1  0
  1 31  1  0
  3 32  1  0
  4 33  1  0
  9 34  1  0
 10 35  1  0
 10 36  1  0
 11 37  1  0
 11 38  1  0
 12 39  1  0
 13 40  1  0
 14 41  1  0
 16 42  1  0
 16 43  1  0
 18 44  1  0
 19 45  1  0
 21 46  1  0
 22 47  1  0
 23 48  1  0
 24 49  1  0
 24 50  1  0
 25 51  1  0
 26 52  1  0
 28 53  1  0
M  END
>  <Energy>  (147) 
-41.277279805879871

>  <compound_id>  (147) 
233

>  <target_id>  (147) 
1

>  <reference_id>  (147) 
199

>  <inspiration_ids>  (147) 
[199, 158]

>  <energy_score>  (147) 
-112.59319279388387

>  <distance_score>  (147) 
1.8594834975316297

>  <path>  (147) 
/opt/xchem-fragalysis-2/maxwin/BulkDock/SCRATCH/505737/C233-P199/C233-P199.minimised.mol

>  <scratch_subdir>  (147) 
/opt/xchem-fragalysis-2/maxwin/BulkDock/SCRATCH/505737/C233-P199

>  <fragmenstein_runtime>  (147) 
7.185459613800049

>  <fragmenstein_outcome>  (147) 
too moved

>  <fragmenstein_mode>  (147) 
expansion

>  <fragmenstein_error>  (147) 


$$$$
C233-P158
     RDKit          3D

 53 56  0  0  0  0  0  0  0  0999 V2000
   -1.1377    1.5594   26.5687 N   0  0  0  0  0  0  0  0  0  0  0  0
   -0.9089    0.7216   27.6525 C   0  0  0  0  0  0  0  0  0  0  0  0
   -0.3304    1.1869   28.8186 C   0  0  0  0  0  0  0  0  0  0  0  0
   -0.3326    0.3704   29.9459 C   0  0  0  0  0  0  0  0  0  0  0  0
   -0.8616   -0.9095   29.8347 C   0  0  0  0  0  0  0  0  0  0  0  0
   -0.8875   -2.0081   31.1901 S   0  0  0  0  0  0  0  0  0  0  0  0
   -2.0011   -2.9295   31.0964 O   0  0  0  0  0  0  0  0  0  0  0  0
   -0.6609   -1.2445   32.3970 O   0  0  0  0  0  0  0  0  0  0  0  0
    0.5107   -2.8517   30.8774 N   0  0  0  0  0  0  0  0  0  0  0  0
    0.5191   -3.8731   29.8316 C   0  0  0  0  0  0  0  0  0  0  0  0
    1.3188   -5.0792   30.2847 C   0  0  0  0  0  0  0  0  0  0  0  0
    0.9928   -5.6096   31.6875 C   0  0  0  0  0  0  0  0  0  0  0  0
   -0.4167   -5.9249   31.8972 N   0  0  0  0  0  0  0  0  0  0  0  0
   -0.5615   -5.9390   33.3758 C   0  0  0  0  0  0  0  0  0  0  0  0
   -0.8568   -7.6190   33.9234 S   0  0  0  0  0  0  0  0  0  0  0  0
   -1.4449   -7.3693   35.6154 C   0  0  0  0  0  0  0  0  0  0  0  0
   -0.5855   -6.8703   36.7646 C   0  0  0  0  0  0  0  0  0  0  0  0
    0.1797   -7.7447   37.5366 C   0  0  0  0  0  0  0  0  0  0  0  0
    0.7505   -7.3288   38.7290 C   0  0  0  0  0  0  0  0  0  0  0  0
    0.6074   -6.0875   39.2212 N   0  0  0  0  0  0  0  0  0  0  0  0
   -0.1248   -5.2364   38.4735 C   0  0  0  0  0  0  0  0  0  0  0  0
   -0.7162   -5.5691   37.2562 C   0  0  0  0  0  0  0  0  0  0  0  0
    0.6767   -5.2405   33.9448 C   0  0  0  0  0  0  0  0  0  0  0  0
    1.7969   -6.0708   34.5406 C   0  0  0  0  0  0  0  0  0  0  0  0
    3.0248   -5.3360   34.2016 N   0  0  0  0  0  0  0  0  0  0  0  0
    2.7005   -4.5533   33.0537 N   0  0  0  0  0  0  0  0  0  0  0  0
    1.3072   -4.6487   32.7528 N   0  0  0  0  0  0  0  0  0  0  0  0
   -1.3047   -1.3421   28.6066 C   0  0  0  0  0  0  0  0  0  0  0  0
   -1.3239   -0.5425   27.5196 N   0  0  0  0  0  0  0  0  0  0  0  0
   -1.6520    0.9885   25.8988 H   0  0  0  0  0  0  0  0  0  0  0  0
   -1.6959    2.3680   26.8363 H   0  0  0  0  0  0  0  0  0  0  0  0
    0.1035    2.1788   28.8488 H   0  0  0  0  0  0  0  0  0  0  0  0
    0.0910    0.7266   30.8804 H   0  0  0  0  0  0  0  0  0  0  0  0
    1.1093   -2.9815   31.7047 H   0  0  0  0  0  0  0  0  0  0  0  0
    0.9747   -3.4506   28.9293 H   0  0  0  0  0  0  0  0  0  0  0  0
   -0.4907   -4.1882   29.5570 H   0  0  0  0  0  0  0  0  0  0  0  0
    1.1839   -5.8865   29.5595 H   0  0  0  0  0  0  0  0  0  0  0  0
    2.3798   -4.8072   30.2338 H   0  0  0  0  0  0  0  0  0  0  0  0
    1.5452   -6.5357   31.8293 H   0  0  0  0  0  0  0  0  0  0  0  0
   -0.9384   -5.1034   31.5878 H   0  0  0  0  0  0  0  0  0  0  0  0
   -1.4405   -5.3393   33.6018 H   0  0  0  0  0  0  0  0  0  0  0  0
   -1.8658   -8.3319   35.9236 H   0  0  0  0  0  0  0  0  0  0  0  0
   -2.2955   -6.7017   35.5303 H   0  0  0  0  0  0  0  0  0  0  0  0
    0.2453   -8.7802   37.2651 H   0  0  0  0  0  0  0  0  0  0  0  0
    1.3154   -8.0212   39.3460 H   0  0  0  0  0  0  0  0  0  0  0  0
   -0.2410   -4.2403   38.8925 H   0  0  0  0  0  0  0  0  0  0  0  0
   -1.3234   -4.8296   36.7419 H   0  0  0  0  0  0  0  0  0  0  0  0
    0.3904   -4.4293   34.6264 H   0  0  0  0  0  0  0  0  0  0  0  0
    1.7283   -6.1579   35.6253 H   0  0  0  0  0  0  0  0  0  0  0  0
    1.8793   -7.0761   34.1270 H   0  0  0  0  0  0  0  0  0  0  0  0
    3.2480   -4.7065   34.9798 H   0  0  0  0  0  0  0  0  0  0  0  0
    3.3404   -4.7101   32.2674 H   0  0  0  0  0  0  0  0  0  0  0  0
   -1.6893   -2.3413   28.4370 H   0  0  0  0  0  0  0  0  0  0  0  0
  1  2  1  0
  2  3  2  0
  3  4  1  0
  4  5  2  0
  5  6  1  0
  6  7  2  0
  6  8  2  0
  6  9  1  0
  9 10  1  0
 10 11  1  0
 11 12  1  0
 12 13  1  0
 13 14  1  0
 14 15  1  0
 15 16  1  0
 16 17  1  0
 17 18  2  0
 18 19  1  0
 19 20  2  0
 20 21  1  0
 21 22  2  0
 14 23  1  0
 23 24  1  0
 24 25  1  0
 25 26  1  0
 26 27  1  0
  5 28  1  0
 28 29  2  0
 29  2  1  0
 27 12  1  0
 22 17  1  0
 27 23  1  0
  1 30  1  0
  1 31  1  0
  3 32  1  0
  4 33  1  0
  9 34  1  0
 10 35  1  0
 10 36  1  0
 11 37  1  0
 11 38  1  0
 12 39  1  0
 13 40  1  0
 14 41  1  0
 16 42  1  0
 16 43  1  0
 18 44  1  0
 19 45  1  0
 21 46  1  0
 22 47  1  0
 23 48  1  0
 24 49  1  0
 24 50  1  0
 25 51  1  0
 26 52  1  0
 28 53  1  0
M  END
>  <Energy>  (148) 
-42.284159115119152

>  <compound_id>  (148) 
233

>  <target_id>  (148) 
1

>  <reference_id>  (148) 
158

>  <inspiration_ids>  (148) 
[199, 158]

>  <energy_score>  (148) 
-113.60007210312418

>  <distance_score>  (148) 
1.941708415809155

>  <path>  (148) 
/opt/xchem-fragalysis-2/maxwin/BulkDock/SCRATCH/505737/C233-P158/C233-P158.minimised.mol

>  <scratch_subdir>  (148) 
/opt/xchem-fragalysis-2/maxwin/BulkDock/SCRATCH/505737/C233-P158

>  <fragmenstein_runtime>  (148) 
7.074947834014893

>  <fragmenstein_outcome>  (148) 
too moved

>  <fragmenstein_mode>  (148) 
expansion

>  <fragmenstein_error>  (148) 


$$$$
C233-P199
     RDKit          3D

 53 56  0  0  0  0  0  0  0  0999 V2000
   -2.0734    1.6933   26.6730 N   0  0  0  0  0  0  0  0  0  0  0  0
   -1.7463    0.8371   27.7210 C   0  0  0  0  0  0  0  0  0  0  0  0
   -0.8018    1.1919   28.6727 C   0  0  0  0  0  0  0  0  0  0  0  0
   -0.5529    0.3207   29.7327 C   0  0  0  0  0  0  0  0  0  0  0  0
   -1.2426   -0.8863   29.7796 C   0  0  0  0  0  0  0  0  0  0  0  0
   -1.0280   -2.0039   31.1094 S   0  0  0  0  0  0  0  0  0  0  0  0
   -2.1029   -2.9754   31.1160 O   0  0  0  0  0  0  0  0  0  0  0  0
   -0.7323   -1.2215   32.2892 O   0  0  0  0  0  0  0  0  0  0  0  0
    0.3896   -2.7888   30.6706 N   0  0  0  0  0  0  0  0  0  0  0  0
    0.3373   -3.8602   29.6698 C   0  0  0  0  0  0  0  0  0  0  0  0
    0.6595   -5.2374   30.2561 C   0  0  0  0  0  0  0  0  0  0  0  0
    0.1566   -5.4358   31.6835 C   0  0  0  0  0  0  0  0  0  0  0  0
    0.0848   -6.8349   32.0986 N   0  0  0  0  0  0  0  0  0  0  0  0
    0.3279   -6.7976   33.5447 C   0  0  0  0  0  0  0  0  0  0  0  0
   -1.0800   -7.4537   34.4438 S   0  0  0  0  0  0  0  0  0  0  0  0
   -0.2118   -8.1603   35.8811 C   0  0  0  0  0  0  0  0  0  0  0  0
    0.1838   -7.3834   37.1197 C   0  0  0  0  0  0  0  0  0  0  0  0
   -0.3996   -6.1896   37.5217 C   0  0  0  0  0  0  0  0  0  0  0  0
   -0.1343   -5.7172   38.8037 C   0  0  0  0  0  0  0  0  0  0  0  0
    0.6859   -6.3218   39.6918 N   0  0  0  0  0  0  0  0  0  0  0  0
    1.2707   -7.4570   39.2839 C   0  0  0  0  0  0  0  0  0  0  0  0
    1.0538   -8.0117   38.0355 C   0  0  0  0  0  0  0  0  0  0  0  0
    0.5335   -5.3380   33.9470 C   0  0  0  0  0  0  0  0  0  0  0  0
    1.7363   -5.1333   34.8428 C   0  0  0  0  0  0  0  0  0  0  0  0
    2.8311   -4.7023   33.9620 N   0  0  0  0  0  0  0  0  0  0  0  0
    2.3422   -4.8831   32.6368 N   0  0  0  0  0  0  0  0  0  0  0  0
    0.9205   -4.6803   32.6936 N   0  0  0  0  0  0  0  0  0  0  0  0
   -2.1431   -1.1764   28.7797 C   0  0  0  0  0  0  0  0  0  0  0  0
   -2.4041   -0.3289   27.7589 N   0  0  0  0  0  0  0  0  0  0  0  0
   -2.4128    2.5825   27.0298 H   0  0  0  0  0  0  0  0  0  0  0  0
   -2.8241    1.2206   26.1673 H   0  0  0  0  0  0  0  0  0  0  0  0
   -0.2767    2.1382   28.5989 H   0  0  0  0  0  0  0  0  0  0  0  0
    0.1694    0.5847   30.5002 H   0  0  0  0  0  0  0  0  0  0  0  0
    1.0207   -2.9013   31.4724 H   0  0  0  0  0  0  0  0  0  0  0  0
    1.0591   -3.6263   28.8792 H   0  0  0  0  0  0  0  0  0  0  0  0
   -0.6412   -3.8901   29.1789 H   0  0  0  0  0  0  0  0  0  0  0  0
    0.1945   -5.9947   29.6212 H   0  0  0  0  0  0  0  0  0  0  0  0
    1.7376   -5.4232   30.1826 H   0  0  0  0  0  0  0  0  0  0  0  0
   -0.8731   -5.0655   31.7237 H   0  0  0  0  0  0  0  0  0  0  0  0
   -0.8671   -7.1762   31.9791 H   0  0  0  0  0  0  0  0  0  0  0  0
    1.2146   -7.4074   33.7334 H   0  0  0  0  0  0  0  0  0  0  0  0
    0.6980   -8.6199   35.4996 H   0  0  0  0  0  0  0  0  0  0  0  0
   -0.8753   -8.9426   36.2383 H   0  0  0  0  0  0  0  0  0  0  0  0
   -1.1058   -5.6564   36.8944 H   0  0  0  0  0  0  0  0  0  0  0  0
   -0.6113   -4.8090   39.1650 H   0  0  0  0  0  0  0  0  0  0  0  0
    1.9144   -7.9422   40.0109 H   0  0  0  0  0  0  0  0  0  0  0  0
    1.5120   -8.9662   37.8115 H   0  0  0  0  0  0  0  0  0  0  0  0
   -0.3617   -4.8472   34.3471 H   0  0  0  0  0  0  0  0  0  0  0  0
    1.5500   -4.3356   35.5701 H   0  0  0  0  0  0  0  0  0  0  0  0
    2.0252   -6.0342   35.3919 H   0  0  0  0  0  0  0  0  0  0  0  0
    3.6742   -5.2480   34.1457 H   0  0  0  0  0  0  0  0  0  0  0  0
    2.7965   -4.2239   31.9920 H   0  0  0  0  0  0  0  0  0  0  0  0
   -2.7142   -2.0981   28.7567 H   0  0  0  0  0  0  0  0  0  0  0  0
  1  2  1  0
  2  3  2  0
  3  4  1  0
  4  5  2  0
  5  6  1  0
  6  7  2  0
  6  8  2  0
  6  9  1  0
  9 10  1  0
 10 11  1  0
 11 12  1  0
 12 13  1  0
 13 14  1  0
 14 15  1  0
 15 16  1  0
 16 17  1  0
 17 18  2  0
 18 19  1  0
 19 20  2  0
 20 21  1  0
 21 22  2  0
 14 23  1  0
 23 24  1  0
 24 25  1  0
 25 26  1  0
 26 27  1  0
  5 28  1  0
 28 29  2  0
 29  2  1  0
 27 12  1  0
 22 17  1  0
 27 23  1  0
  1 30  1  0
  1 31  1  0
  3 32  1  0
  4 33  1  0
  9 34  1  0
 10 35  1  0
 10 36  1  0
 11 37  1  0
 11 38  1  0
 12 39  1  0
 13 40  1  0
 14 41  1  0
 16 42  1  0
 16 43  1  0
 18 44  1  0
 19 45  1  0
 21 46  1  0
 22 47  1  0
 23 48  1  0
 24 49  1  0
 24 50  1  0
 25 51  1  0
 26 52  1  0
 28 53  1  0
M  END
>  <Energy>  (149) 
-42.655607169332768

>  <compound_id>  (149) 
233

>  <target_id>  (149) 
1

>  <reference_id>  (149) 
199

>  <inspiration_ids>  (149) 
[199, 159]

>  <energy_score>  (149) 
-113.97152015733897

>  <distance_score>  (149) 
1.9789632306203089

>  <path>  (149) 
/opt/xchem-fragalysis-2/maxwin/BulkDock/SCRATCH/505737/C233-P199/C233-P199.minimised.mol

>  <scratch_subdir>  (149) 
/opt/xchem-fragalysis-2/maxwin/BulkDock/SCRATCH/505737/C233-P199

>  <fragmenstein_runtime>  (149) 
7.1869285106658936

>  <fragmenstein_outcome>  (149) 
too moved

>  <fragmenstein_mode>  (149) 
expansion

>  <fragmenstein_error>  (149) 


$$$$
C233-P159
     RDKit          3D

 53 56  0  0  0  0  0  0  0  0999 V2000
   -1.8882    1.9253   26.7250 N   0  0  0  0  0  0  0  0  0  0  0  0
   -1.5635    1.0388   27.7448 C   0  0  0  0  0  0  0  0  0  0  0  0
   -0.7994    1.4340   28.8298 C   0  0  0  0  0  0  0  0  0  0  0  0
   -0.5621    0.5190   29.8548 C   0  0  0  0  0  0  0  0  0  0  0  0
   -1.0780   -0.7667   29.7351 C   0  0  0  0  0  0  0  0  0  0  0  0
   -0.9110   -1.9439   31.0162 S   0  0  0  0  0  0  0  0  0  0  0  0
   -2.0126   -2.8846   30.9647 O   0  0  0  0  0  0  0  0  0  0  0  0
   -0.6325   -1.2108   32.2327 O   0  0  0  0  0  0  0  0  0  0  0  0
    0.5066   -2.7301   30.5561 N   0  0  0  0  0  0  0  0  0  0  0  0
    0.4236   -3.8692   29.6266 C   0  0  0  0  0  0  0  0  0  0  0  0
    0.7679   -5.2008   30.3128 C   0  0  0  0  0  0  0  0  0  0  0  0
    0.0194   -5.3905   31.6310 C   0  0  0  0  0  0  0  0  0  0  0  0
    0.0526   -6.7401   32.2220 N   0  0  0  0  0  0  0  0  0  0  0  0
    0.3359   -6.4975   33.6416 C   0  0  0  0  0  0  0  0  0  0  0  0
   -0.5523   -7.5609   34.7831 S   0  0  0  0  0  0  0  0  0  0  0  0
    0.7888   -7.6457   36.0418 C   0  0  0  0  0  0  0  0  0  0  0  0
    0.4794   -7.4920   37.5066 C   0  0  0  0  0  0  0  0  0  0  0  0
   -0.2643   -6.4244   38.0043 C   0  0  0  0  0  0  0  0  0  0  0  0
   -0.4290   -6.3025   39.3799 C   0  0  0  0  0  0  0  0  0  0  0  0
    0.0922   -7.1559   40.2845 N   0  0  0  0  0  0  0  0  0  0  0  0
    0.8331   -8.1653   39.7995 C   0  0  0  0  0  0  0  0  0  0  0  0
    1.0758   -8.3450   38.4477 C   0  0  0  0  0  0  0  0  0  0  0  0
    0.0044   -5.0383   33.9086 C   0  0  0  0  0  0  0  0  0  0  0  0
    0.8590   -4.2908   34.9009 C   0  0  0  0  0  0  0  0  0  0  0  0
    2.0765   -3.8936   34.1815 N   0  0  0  0  0  0  0  0  0  0  0  0
    1.8595   -4.2391   32.8125 N   0  0  0  0  0  0  0  0  0  0  0  0
    0.4328   -4.4307   32.6598 N   0  0  0  0  0  0  0  0  0  0  0  0
   -1.7803   -1.0954   28.6013 C   0  0  0  0  0  0  0  0  0  0  0  0
   -2.0241   -0.2097   27.6103 N   0  0  0  0  0  0  0  0  0  0  0  0
   -2.3378    2.7598   27.0961 H   0  0  0  0  0  0  0  0  0  0  0  0
   -2.5295    1.4227   26.1127 H   0  0  0  0  0  0  0  0  0  0  0  0
   -0.4161    2.4476   28.8890 H   0  0  0  0  0  0  0  0  0  0  0  0
    0.0130    0.8151   30.7274 H   0  0  0  0  0  0  0  0  0  0  0  0
    1.1056   -2.8599   31.3881 H   0  0  0  0  0  0  0  0  0  0  0  0
    1.1356   -3.6917   28.8129 H   0  0  0  0  0  0  0  0  0  0  0  0
   -0.5629   -3.9302   29.1582 H   0  0  0  0  0  0  0  0  0  0  0  0
    0.5095   -6.0249   29.6511 H   0  0  0  0  0  0  0  0  0  0  0  0
    1.8529   -5.2710   30.4471 H   0  0  0  0  0  0  0  0  0  0  0  0
   -1.0372   -5.1938   31.4284 H   0  0  0  0  0  0  0  0  0  0  0  0
   -0.8901   -7.1271   32.1793 H   0  0  0  0  0  0  0  0  0  0  0  0
    1.4073   -6.6930   33.7557 H   0  0  0  0  0  0  0  0  0  0  0  0
    1.3160   -8.5796   35.8596 H   0  0  0  0  0  0  0  0  0  0  0  0
    1.5525   -6.8908   35.8335 H   0  0  0  0  0  0  0  0  0  0  0  0
   -0.7264   -5.6928   37.3512 H   0  0  0  0  0  0  0  0  0  0  0  0
   -1.0225   -5.4939   39.8005 H   0  0  0  0  0  0  0  0  0  0  0  0
    1.2477   -8.8451   40.5390 H   0  0  0  0  0  0  0  0  0  0  0  0
    1.7289   -9.1553   38.1540 H   0  0  0  0  0  0  0  0  0  0  0  0
   -1.0584   -4.8590   34.0734 H   0  0  0  0  0  0  0  0  0  0  0  0
    0.3486   -3.3725   35.2176 H   0  0  0  0  0  0  0  0  0  0  0  0
    1.0991   -4.8473   35.8056 H   0  0  0  0  0  0  0  0  0  0  0  0
    2.9182   -4.2997   34.5905 H   0  0  0  0  0  0  0  0  0  0  0  0
    2.4035   -5.0647   32.5345 H   0  0  0  0  0  0  0  0  0  0  0  0
   -2.1995   -2.0819   28.4392 H   0  0  0  0  0  0  0  0  0  0  0  0
  1  2  1  0
  2  3  2  0
  3  4  1  0
  4  5  2  0
  5  6  1  0
  6  7  2  0
  6  8  2  0
  6  9  1  0
  9 10  1  0
 10 11  1  0
 11 12  1  0
 12 13  1  0
 13 14  1  0
 14 15  1  0
 15 16  1  0
 16 17  1  0
 17 18  2  0
 18 19  1  0
 19 20  2  0
 20 21  1  0
 21 22  2  0
 14 23  1  0
 23 24  1  0
 24 25  1  0
 25 26  1  0
 26 27  1  0
  5 28  1  0
 28 29  2  0
 29  2  1  0
 27 12  1  0
 22 17  1  0
 27 23  1  0
  1 30  1  0
  1 31  1  0
  3 32  1  0
  4 33  1  0
  9 34  1  0
 10 35  1  0
 10 36  1  0
 11 37  1  0
 11 38  1  0
 12 39  1  0
 13 40  1  0
 14 41  1  0
 16 42  1  0
 16 43  1  0
 18 44  1  0
 19 45  1  0
 21 46  1  0
 22 47  1  0
 23 48  1  0
 24 49  1  0
 24 50  1  0
 25 51  1  0
 26 52  1  0
 28 53  1  0
M  END
>  <Energy>  (150) 
-36.124361698657424

>  <compound_id>  (150) 
233

>  <target_id>  (150) 
1

>  <reference_id>  (150) 
159

>  <inspiration_ids>  (150) 
[199, 159]

>  <energy_score>  (150) 
-107.44027468666334

>  <distance_score>  (150) 
1.9311396034744444

>  <path>  (150) 
/opt/xchem-fragalysis-2/maxwin/BulkDock/SCRATCH/505737/C233-P159/C233-P159.minimised.mol

>  <scratch_subdir>  (150) 
/opt/xchem-fragalysis-2/maxwin/BulkDock/SCRATCH/505737/C233-P159

>  <fragmenstein_runtime>  (150) 
6.63049054145813

>  <fragmenstein_outcome>  (150) 
too moved

>  <fragmenstein_mode>  (150) 
expansion

>  <fragmenstein_error>  (150) 


$$$$
C234-P199
     RDKit          3D

 48 52  0  0  0  0  0  0  0  0999 V2000
   -2.0500    1.6376   26.6819 N   0  0  0  0  0  0  0  0  0  0  0  0
   -1.7532    0.8012   27.7548 C   0  0  0  0  0  0  0  0  0  0  0  0
   -0.8384    1.1763   28.7269 C   0  0  0  0  0  0  0  0  0  0  0  0
   -0.6263    0.3297   29.8139 C   0  0  0  0  0  0  0  0  0  0  0  0
   -1.3218   -0.8742   29.8675 C   0  0  0  0  0  0  0  0  0  0  0  0
   -1.1120   -1.9759   31.2112 S   0  0  0  0  0  0  0  0  0  0  0  0
   -2.0195   -3.0970   31.0924 O   0  0  0  0  0  0  0  0  0  0  0  0
   -1.0643   -1.1848   32.4210 O   0  0  0  0  0  0  0  0  0  0  0  0
    0.4453   -2.5393   30.9372 N   0  0  0  0  0  0  0  0  0  0  0  0
    0.6804   -3.3810   29.7425 C   0  0  0  0  0  0  0  0  0  0  0  0
    1.6869   -4.4742   30.0657 C   0  0  0  0  0  0  0  0  0  0  0  0
    1.0240   -5.4549   30.9808 C   0  0  0  0  0  0  0  0  0  0  0  0
    0.8736   -5.0801   32.2725 N   0  0  0  0  0  0  0  0  0  0  0  0
    0.1214   -5.8570   33.0881 C   0  0  0  0  0  0  0  0  0  0  0  0
   -0.2010   -5.3133   34.7223 S   0  0  0  0  0  0  0  0  0  0  0  0
    0.6665   -6.4608   35.7012 C   0  0  0  0  0  0  0  0  0  0  0  0
    1.4893   -7.2650   35.1148 N   0  0  0  0  0  0  0  0  0  0  0  0
    2.3175   -8.0529   35.8888 C   0  0  0  0  0  0  0  0  0  0  0  0
    3.1211   -8.8115   35.3559 O   0  0  0  0  0  0  0  0  0  0  0  0
    2.1641   -7.8612   37.3145 C   0  0  0  0  0  0  0  0  0  0  0  0
    3.1255   -8.6000   38.5019 S   0  0  0  0  0  0  0  0  0  0  0  0
    2.2337   -7.8413   39.7621 C   0  0  0  0  0  0  0  0  0  0  0  0
    1.2413   -7.0131   39.2745 C   0  0  0  0  0  0  0  0  0  0  0  0
    1.2242   -7.0292   37.8619 C   0  0  0  0  0  0  0  0  0  0  0  0
    0.4230   -6.3267   37.0451 N   0  0  0  0  0  0  0  0  0  0  0  0
   -0.4515   -7.0093   32.5750 C   0  0  0  0  0  0  0  0  0  0  0  0
   -1.2946   -8.0575   32.9590 C   0  0  0  0  0  0  0  0  0  0  0  0
   -1.5276   -8.9187   31.9597 N   0  0  0  0  0  0  0  0  0  0  0  0
   -0.6835   -8.5201   31.0083 N   0  0  0  0  0  0  0  0  0  0  0  0
   -0.1618   -7.2967   31.2593 C   0  0  0  0  0  0  0  0  0  0  0  0
    0.5410   -6.5616   30.4009 N   0  0  0  0  0  0  0  0  0  0  0  0
   -2.1814   -1.1932   28.8415 C   0  0  0  0  0  0  0  0  0  0  0  0
   -2.4086   -0.3670   27.7948 N   0  0  0  0  0  0  0  0  0  0  0  0
   -2.3944    2.5356   27.0116 H   0  0  0  0  0  0  0  0  0  0  0  0
   -2.7852    1.1545   26.1641 H   0  0  0  0  0  0  0  0  0  0  0  0
   -0.3110    2.1212   28.6491 H   0  0  0  0  0  0  0  0  0  0  0  0
    0.0736    0.6072   30.5973 H   0  0  0  0  0  0  0  0  0  0  0  0
    0.8385   -2.8858   31.8206 H   0  0  0  0  0  0  0  0  0  0  0  0
   -0.2514   -3.8147   29.3628 H   0  0  0  0  0  0  0  0  0  0  0  0
    1.0847   -2.7330   28.9568 H   0  0  0  0  0  0  0  0  0  0  0  0
    2.0087   -4.9749   29.1459 H   0  0  0  0  0  0  0  0  0  0  0  0
    2.5821   -4.0643   30.5473 H   0  0  0  0  0  0  0  0  0  0  0  0
    2.4875   -8.0373   40.7950 H   0  0  0  0  0  0  0  0  0  0  0  0
    0.5796   -6.4388   39.9106 H   0  0  0  0  0  0  0  0  0  0  0  0
   -0.2477   -5.6298   37.3484 H   0  0  0  0  0  0  0  0  0  0  0  0
   -1.7670   -8.2237   33.9182 H   0  0  0  0  0  0  0  0  0  0  0  0
   -0.5006   -9.1221   30.2126 H   0  0  0  0  0  0  0  0  0  0  0  0
   -2.7417   -2.1218   28.8144 H   0  0  0  0  0  0  0  0  0  0  0  0
  1  2  1  0
  2  3  2  0
  3  4  1  0
  4  5  2  0
  5  6  1  0
  6  7  2  0
  6  8  2  0
  6  9  1  0
  9 10  1  0
 10 11  1  0
 11 12  1  0
 12 13  2  0
 13 14  1  0
 14 15  1  0
 15 16  1  0
 16 17  2  0
 17 18  1  0
 18 19  2  0
 18 20  1  0
 20 21  1  0
 21 22  1  0
 22 23  2  0
 23 24  1  0
 24 25  1  0
 14 26  2  0
 26 27  1  0
 27 28  2  0
 28 29  1  0
 29 30  1  0
 30 31  2  0
  5 32  1  0
 32 33  2  0
 33  2  1  0
 31 12  1  0
 25 16  1  0
 30 26  1  0
 24 20  2  0
  1 34  1  0
  1 35  1  0
  3 36  1  0
  4 37  1  0
  9 38  1  0
 10 39  1  0
 10 40  1  0
 11 41  1  0
 11 42  1  0
 22 43  1  0
 23 44  1  0
 25 45  1  0
 27 46  1  0
 29 47  1  0
 32 48  1  0
M  END
>  <Energy>  (151) 
-139.89909043897961

>  <compound_id>  (151) 
234

>  <target_id>  (151) 
1

>  <reference_id>  (151) 
199

>  <inspiration_ids>  (151) 
[199, 163]

>  <energy_score>  (151) 
-81.04975941976221

>  <distance_score>  (151) 
1.0037155281935677

>  <path>  (151) 
/opt/xchem-fragalysis-2/maxwin/BulkDock/SCRATCH/505737/C234-P199/C234-P199.minimised.mol

>  <scratch_subdir>  (151) 
/opt/xchem-fragalysis-2/maxwin/BulkDock/SCRATCH/505737/C234-P199

>  <fragmenstein_runtime>  (151) 
11.509698867797852

>  <fragmenstein_outcome>  (151) 
too moved

>  <fragmenstein_mode>  (151) 
expansion

>  <fragmenstein_error>  (151) 


$$$$
C234-P163
     RDKit          3D

 48 52  0  0  0  0  0  0  0  0999 V2000
   -1.7875    1.7732   26.7191 N   0  0  0  0  0  0  0  0  0  0  0  0
   -1.4208    0.8731   27.7217 C   0  0  0  0  0  0  0  0  0  0  0  0
   -0.8755    1.3341   28.9113 C   0  0  0  0  0  0  0  0  0  0  0  0
   -0.7135    0.4516   29.9794 C   0  0  0  0  0  0  0  0  0  0  0  0
   -1.1059   -0.8732   29.8211 C   0  0  0  0  0  0  0  0  0  0  0  0
   -1.0048   -2.0058   31.1565 S   0  0  0  0  0  0  0  0  0  0  0  0
   -1.9415   -3.0905   30.9627 O   0  0  0  0  0  0  0  0  0  0  0  0
   -0.9957   -1.2334   32.3803 O   0  0  0  0  0  0  0  0  0  0  0  0
    0.5398   -2.5951   30.9762 N   0  0  0  0  0  0  0  0  0  0  0  0
    0.9282   -3.3964   29.8161 C   0  0  0  0  0  0  0  0  0  0  0  0
    1.9300   -4.4670   30.2412 C   0  0  0  0  0  0  0  0  0  0  0  0
    1.2248   -5.5066   31.0555 C   0  0  0  0  0  0  0  0  0  0  0  0
    1.0251   -5.2423   32.3671 N   0  0  0  0  0  0  0  0  0  0  0  0
    0.0962   -5.9682   33.0290 C   0  0  0  0  0  0  0  0  0  0  0  0
   -0.4135   -5.4540   34.6146 S   0  0  0  0  0  0  0  0  0  0  0  0
    0.5863   -6.3948   35.6809 C   0  0  0  0  0  0  0  0  0  0  0  0
   -0.0166   -6.9045   36.7027 N   0  0  0  0  0  0  0  0  0  0  0  0
    0.7420   -7.4662   37.7200 C   0  0  0  0  0  0  0  0  0  0  0  0
    0.2457   -7.7891   38.7906 O   0  0  0  0  0  0  0  0  0  0  0  0
    2.1581   -7.5379   37.4207 C   0  0  0  0  0  0  0  0  0  0  0  0
    3.3267   -8.1950   38.4624 S   0  0  0  0  0  0  0  0  0  0  0  0
    4.5916   -7.8086   37.3629 C   0  0  0  0  0  0  0  0  0  0  0  0
    4.1235   -7.1712   36.2300 C   0  0  0  0  0  0  0  0  0  0  0  0
    2.7180   -7.0278   36.2789 C   0  0  0  0  0  0  0  0  0  0  0  0
    1.9247   -6.4403   35.3676 N   0  0  0  0  0  0  0  0  0  0  0  0
   -0.5064   -7.0368   32.3936 C   0  0  0  0  0  0  0  0  0  0  0  0
   -1.4644   -8.0284   32.6290 C   0  0  0  0  0  0  0  0  0  0  0  0
   -1.6372   -8.8313   31.5733 N   0  0  0  0  0  0  0  0  0  0  0  0
   -0.7218   -8.4044   30.6980 N   0  0  0  0  0  0  0  0  0  0  0  0
   -0.1039   -7.2702   31.0970 C   0  0  0  0  0  0  0  0  0  0  0  0
    0.7433   -6.5500   30.3645 N   0  0  0  0  0  0  0  0  0  0  0  0
   -1.6240   -1.2642   28.6089 C   0  0  0  0  0  0  0  0  0  0  0  0
   -1.7977   -0.4040   27.5787 N   0  0  0  0  0  0  0  0  0  0  0  0
   -1.1182    2.5283   26.6302 H   0  0  0  0  0  0  0  0  0  0  0  0
   -2.6928    2.1770   26.9600 H   0  0  0  0  0  0  0  0  0  0  0  0
   -0.5983    2.3781   29.0170 H   0  0  0  0  0  0  0  0  0  0  0  0
   -0.3049    0.8085   30.9206 H   0  0  0  0  0  0  0  0  0  0  0  0
    1.2356   -2.2104   31.6122 H   0  0  0  0  0  0  0  0  0  0  0  0
    0.0563   -3.8493   29.3321 H   0  0  0  0  0  0  0  0  0  0  0  0
    1.4071   -2.7295   29.0907 H   0  0  0  0  0  0  0  0  0  0  0  0
    2.3723   -4.9337   29.3533 H   0  0  0  0  0  0  0  0  0  0  0  0
    2.7507   -4.0339   30.8249 H   0  0  0  0  0  0  0  0  0  0  0  0
    5.6140   -8.0576   37.6149 H   0  0  0  0  0  0  0  0  0  0  0  0
    4.7721   -6.8316   35.4327 H   0  0  0  0  0  0  0  0  0  0  0  0
    2.2542   -5.8407   34.6173 H   0  0  0  0  0  0  0  0  0  0  0  0
   -2.0371   -8.2126   33.5281 H   0  0  0  0  0  0  0  0  0  0  0  0
   -0.5577   -8.9322   29.8468 H   0  0  0  0  0  0  0  0  0  0  0  0
   -1.9532   -2.2791   28.4089 H   0  0  0  0  0  0  0  0  0  0  0  0
  1  2  1  0
  2  3  2  0
  3  4  1  0
  4  5  2  0
  5  6  1  0
  6  7  2  0
  6  8  2  0
  6  9  1  0
  9 10  1  0
 10 11  1  0
 11 12  1  0
 12 13  2  0
 13 14  1  0
 14 15  1  0
 15 16  1  0
 16 17  2  0
 17 18  1  0
 18 19  2  0
 18 20  1  0
 20 21  1  0
 21 22  1  0
 22 23  2  0
 23 24  1  0
 24 25  1  0
 14 26  2  0
 26 27  1  0
 27 28  2  0
 28 29  1  0
 29 30  1  0
 30 31  2  0
  5 32  1  0
 32 33  2  0
 33  2  1  0
 31 12  1  0
 25 16  1  0
 30 26  1  0
 24 20  2  0
  1 34  1  0
  1 35  1  0
  3 36  1  0
  4 37  1  0
  9 38  1  0
 10 39  1  0
 10 40  1  0
 11 41  1  0
 11 42  1  0
 22 43  1  0
 23 44  1  0
 25 45  1  0
 27 46  1  0
 29 47  1  0
 32 48  1  0
M  END
>  <Energy>  (152) 
-125.76019964655937

>  <compound_id>  (152) 
234

>  <target_id>  (152) 
1

>  <reference_id>  (152) 
163

>  <inspiration_ids>  (152) 
[199, 163]

>  <energy_score>  (152) 
-66.91086862734318

>  <distance_score>  (152) 
0.9939846889618804

>  <path>  (152) 
/opt/xchem-fragalysis-2/maxwin/BulkDock/SCRATCH/505737/C234-P163/C234-P163.minimised.mol

>  <scratch_subdir>  (152) 
/opt/xchem-fragalysis-2/maxwin/BulkDock/SCRATCH/505737/C234-P163

>  <fragmenstein_runtime>  (152) 
12.26805591583252

>  <fragmenstein_outcome>  (152) 
acceptable

>  <fragmenstein_mode>  (152) 
expansion

>  <fragmenstein_error>  (152) 


$$$$
C236-P199
     RDKit          3D

 54 57  0  0  0  0  0  0  0  0999 V2000
   -1.9983    1.5266   26.8604 N   0  0  0  0  0  0  0  0  0  0  0  0
   -1.6972    0.6589   27.9062 C   0  0  0  0  0  0  0  0  0  0  0  0
   -0.7616    0.9973   28.8725 C   0  0  0  0  0  0  0  0  0  0  0  0
   -0.5171    0.1066   29.9187 C   0  0  0  0  0  0  0  0  0  0  0  0
   -1.2036   -1.1042   29.9430 C   0  0  0  0  0  0  0  0  0  0  0  0
   -0.9848   -2.2502   31.2541 S   0  0  0  0  0  0  0  0  0  0  0  0
   -2.0803   -3.1973   31.2709 O   0  0  0  0  0  0  0  0  0  0  0  0
   -0.6398   -1.4890   32.4349 O   0  0  0  0  0  0  0  0  0  0  0  0
    0.3946   -3.0612   30.7980 N   0  0  0  0  0  0  0  0  0  0  0  0
    0.3861   -4.0445   29.7108 C   0  0  0  0  0  0  0  0  0  0  0  0
    1.1622   -5.2971   30.1248 C   0  0  0  0  0  0  0  0  0  0  0  0
    0.5205   -6.0313   31.2592 C   0  0  0  0  0  0  0  0  0  0  0  0
   -0.4649   -7.0073   31.0621 N   0  0  0  0  0  0  0  0  0  0  0  0
   -0.7777   -7.3472   32.2822 C   0  0  0  0  0  0  0  0  0  0  0  0
   -1.6622   -8.2746   32.6014 O   0  0  0  0  0  0  0  0  0  0  0  0
   -0.0496   -6.6376   33.3235 C   0  0  0  0  0  0  0  0  0  0  0  0
   -0.1184   -6.5805   34.6507 C   0  0  0  0  0  0  0  0  0  0  0  0
    0.8661   -5.7320   35.2606 N   0  0  0  0  0  0  0  0  0  0  0  0
    0.6207   -5.1541   36.8246 S   0  0  0  0  0  0  0  0  0  0  0  0
    1.9229   -4.7938   37.3485 O   0  0  0  0  0  0  0  0  0  0  0  0
   -0.4191   -4.1519   36.7553 O   0  0  0  0  0  0  0  0  0  0  0  0
    0.0198   -6.4121   37.7917 N   0  0  0  0  0  0  0  0  0  0  0  0
    0.7829   -7.6942   37.8523 C   0  0  0  0  0  0  0  0  0  0  0  0
    2.1062   -7.5613   38.6152 C   0  0  0  0  0  0  0  0  0  0  0  0
    2.1380   -6.4828   39.6164 N   0  0  0  0  0  0  0  0  0  0  0  0
    0.8049   -6.3076   40.2072 C   0  0  0  0  0  0  0  0  0  0  0  0
   -0.2826   -5.9149   39.1937 C   0  0  0  0  0  0  0  0  0  0  0  0
    1.6840   -4.9324   34.4035 C   0  0  0  0  0  0  0  0  0  0  0  0
    1.7229   -4.9747   33.1080 N   0  0  0  0  0  0  0  0  0  0  0  0
    0.8342   -5.8290   32.5480 C   0  0  0  0  0  0  0  0  0  0  0  0
   -2.1116   -1.3663   28.9421 C   0  0  0  0  0  0  0  0  0  0  0  0
   -2.3660   -0.5021   27.9315 N   0  0  0  0  0  0  0  0  0  0  0  0
   -2.7251    1.0581   26.3172 H   0  0  0  0  0  0  0  0  0  0  0  0
   -2.3513    2.4128   27.2104 H   0  0  0  0  0  0  0  0  0  0  0  0
   -0.2335    1.9432   28.8153 H   0  0  0  0  0  0  0  0  0  0  0  0
    0.2013    0.3597   30.6935 H   0  0  0  0  0  0  0  0  0  0  0  0
    1.1785   -3.0158   31.4503 H   0  0  0  0  0  0  0  0  0  0  0  0
   -0.6323   -4.3022   29.4067 H   0  0  0  0  0  0  0  0  0  0  0  0
    0.8784   -3.5896   28.8442 H   0  0  0  0  0  0  0  0  0  0  0  0
    2.1818   -5.0002   30.4029 H   0  0  0  0  0  0  0  0  0  0  0  0
    1.2871   -5.9775   29.2830 H   0  0  0  0  0  0  0  0  0  0  0  0
   -2.0501   -8.6738   31.8109 H   0  0  0  0  0  0  0  0  0  0  0  0
   -0.8277   -7.1263   35.2613 H   0  0  0  0  0  0  0  0  0  0  0  0
    0.1533   -8.4283   38.3661 H   0  0  0  0  0  0  0  0  0  0  0  0
    0.9547   -8.0877   36.8467 H   0  0  0  0  0  0  0  0  0  0  0  0
    2.3366   -8.5161   39.1026 H   0  0  0  0  0  0  0  0  0  0  0  0
    2.9216   -7.3862   37.9032 H   0  0  0  0  0  0  0  0  0  0  0  0
    2.3623   -5.6158   39.1081 H   0  0  0  0  0  0  0  0  0  0  0  0
    0.8559   -5.5469   40.9944 H   0  0  0  0  0  0  0  0  0  0  0  0
    0.5163   -7.2386   40.7123 H   0  0  0  0  0  0  0  0  0  0  0  0
   -0.4042   -4.8258   39.1995 H   0  0  0  0  0  0  0  0  0  0  0  0
   -1.2410   -6.3219   39.5128 H   0  0  0  0  0  0  0  0  0  0  0  0
    2.3422   -4.2210   34.9309 H   0  0  0  0  0  0  0  0  0  0  0  0
   -2.6919   -2.2811   28.9090 H   0  0  0  0  0  0  0  0  0  0  0  0
  1  2  1  0
  2  3  2  0
  3  4  1  0
  4  5  2  0
  5  6  1  0
  6  7  2  0
  6  8  2  0
  6  9  1  0
  9 10  1  0
 10 11  1  0
 11 12  1  0
 12 13  1  0
 13 14  2  0
 14 15  1  0
 14 16  1  0
 16 17  2  0
 17 18  1  0
 18 19  1  0
 19 20  2  0
 19 21  2  0
 19 22  1  0
 22 23  1  0
 23 24  1  0
 24 25  1  0
 25 26  1  0
 26 27  1  0
 18 28  1  0
 28 29  2  0
 29 30  1  0
  5 31  1  0
 31 32  2  0
 32  2  1  0
 30 12  2  0
 30 16  1  0
 27 22  1  0
  1 33  1  0
  1 34  1  0
  3 35  1  0
  4 36  1  0
  9 37  1  0
 10 38  1  0
 10 39  1  0
 11 40  1  0
 11 41  1  0
 15 42  1  0
 17 43  1  0
 23 44  1  0
 23 45  1  0
 24 46  1  0
 24 47  1  0
 25 48  1  0
 26 49  1  0
 26 50  1  0
 27 51  1  0
 27 52  1  0
 28 53  1  0
 31 54  1  0
M  END
>  <Energy>  (153) 
-157.83182914491923

>  <compound_id>  (153) 
236

>  <target_id>  (153) 
1

>  <reference_id>  (153) 
199

>  <inspiration_ids>  (153) 
[199, 164]

>  <energy_score>  (153) 
-113.77020967902502

>  <distance_score>  (153) 
1.1413295404476544

>  <path>  (153) 
/opt/xchem-fragalysis-2/maxwin/BulkDock/SCRATCH/505737/C236-P199/C236-P199.minimised.mol

>  <scratch_subdir>  (153) 
/opt/xchem-fragalysis-2/maxwin/BulkDock/SCRATCH/505737/C236-P199

>  <fragmenstein_runtime>  (153) 
3.981485366821289

>  <fragmenstein_outcome>  (153) 
too moved

>  <fragmenstein_mode>  (153) 
expansion

>  <fragmenstein_error>  (153) 


$$$$
C236-P164
     RDKit          3D

 54 57  0  0  0  0  0  0  0  0999 V2000
   -1.6520    1.6945   26.8951 N   0  0  0  0  0  0  0  0  0  0  0  0
   -1.3194    0.8139   27.9181 C   0  0  0  0  0  0  0  0  0  0  0  0
   -0.6895    1.2439   29.0727 C   0  0  0  0  0  0  0  0  0  0  0  0
   -0.4911    0.3333   30.1132 C   0  0  0  0  0  0  0  0  0  0  0  0
   -0.8999   -0.9854   29.9388 C   0  0  0  0  0  0  0  0  0  0  0  0
   -0.7905   -2.1715   31.2265 S   0  0  0  0  0  0  0  0  0  0  0  0
   -1.9107   -3.0854   31.1544 O   0  0  0  0  0  0  0  0  0  0  0  0
   -0.5054   -1.4564   32.4525 O   0  0  0  0  0  0  0  0  0  0  0  0
    0.5970   -2.9982   30.8370 N   0  0  0  0  0  0  0  0  0  0  0  0
    0.6620   -3.9052   29.6863 C   0  0  0  0  0  0  0  0  0  0  0  0
    1.5019   -5.1391   30.0244 C   0  0  0  0  0  0  0  0  0  0  0  0
    0.8368   -5.9817   31.0628 C   0  0  0  0  0  0  0  0  0  0  0  0
   -0.0095   -7.0389   30.7069 N   0  0  0  0  0  0  0  0  0  0  0  0
   -0.4497   -7.4550   31.8582 C   0  0  0  0  0  0  0  0  0  0  0  0
   -1.2378   -8.5066   32.0067 O   0  0  0  0  0  0  0  0  0  0  0  0
    0.0663   -6.7269   33.0019 C   0  0  0  0  0  0  0  0  0  0  0  0
   -0.1653   -6.7663   34.3057 C   0  0  0  0  0  0  0  0  0  0  0  0
    0.5730   -5.8045   35.0830 N   0  0  0  0  0  0  0  0  0  0  0  0
   -0.1684   -5.3078   36.5240 S   0  0  0  0  0  0  0  0  0  0  0  0
    0.0026   -3.8774   36.6457 O   0  0  0  0  0  0  0  0  0  0  0  0
   -1.4817   -5.9032   36.6000 O   0  0  0  0  0  0  0  0  0  0  0  0
    0.7498   -6.0129   37.7548 N   0  0  0  0  0  0  0  0  0  0  0  0
    0.7261   -7.5005   37.8533 C   0  0  0  0  0  0  0  0  0  0  0  0
    1.8239   -7.9738   38.8216 C   0  0  0  0  0  0  0  0  0  0  0  0
    2.1979   -6.9790   39.8455 N   0  0  0  0  0  0  0  0  0  0  0  0
    0.9989   -6.2295   40.2526 C   0  0  0  0  0  0  0  0  0  0  0  0
    0.4251   -5.3953   39.0994 C   0  0  0  0  0  0  0  0  0  0  0  0
    1.4259   -4.8970   34.3852 C   0  0  0  0  0  0  0  0  0  0  0  0
    1.6655   -4.8919   33.1082 N   0  0  0  0  0  0  0  0  0  0  0  0
    0.9588   -5.8006   32.3885 C   0  0  0  0  0  0  0  0  0  0  0  0
   -1.4577   -1.3437   28.7340 C   0  0  0  0  0  0  0  0  0  0  0  0
   -1.6718   -0.4629   27.7328 N   0  0  0  0  0  0  0  0  0  0  0  0
   -2.1883    1.1343   26.2316 H   0  0  0  0  0  0  0  0  0  0  0  0
   -2.2286    2.4583   27.2415 H   0  0  0  0  0  0  0  0  0  0  0  0
   -0.3853    2.2804   29.1712 H   0  0  0  0  0  0  0  0  0  0  0  0
   -0.0314    0.6606   31.0411 H   0  0  0  0  0  0  0  0  0  0  0  0
    1.3416   -2.9926   31.5356 H   0  0  0  0  0  0  0  0  0  0  0  0
   -0.3380   -4.2037   29.3570 H   0  0  0  0  0  0  0  0  0  0  0  0
    1.1379   -3.3672   28.8593 H   0  0  0  0  0  0  0  0  0  0  0  0
    2.4934   -4.8263   30.3768 H   0  0  0  0  0  0  0  0  0  0  0  0
    1.6822   -5.7336   29.1237 H   0  0  0  0  0  0  0  0  0  0  0  0
   -1.2115   -9.0114   31.1778 H   0  0  0  0  0  0  0  0  0  0  0  0
   -0.8762   -7.4340   34.7792 H   0  0  0  0  0  0  0  0  0  0  0  0
   -0.2451   -7.8193   38.2317 H   0  0  0  0  0  0  0  0  0  0  0  0
    0.8904   -7.9543   36.8727 H   0  0  0  0  0  0  0  0  0  0  0  0
    1.5059   -8.9006   39.3117 H   0  0  0  0  0  0  0  0  0  0  0  0
    2.7277   -8.2226   38.2527 H   0  0  0  0  0  0  0  0  0  0  0  0
    2.8260   -6.3094   39.3965 H   0  0  0  0  0  0  0  0  0  0  0  0
    1.2470   -5.5702   41.0918 H   0  0  0  0  0  0  0  0  0  0  0  0
    0.2413   -6.9285   40.6296 H   0  0  0  0  0  0  0  0  0  0  0  0
    0.8836   -4.3996   39.1218 H   0  0  0  0  0  0  0  0  0  0  0  0
   -0.6579   -5.2912   39.2304 H   0  0  0  0  0  0  0  0  0  0  0  0
    1.9172   -4.1490   35.0306 H   0  0  0  0  0  0  0  0  0  0  0  0
   -1.7880   -2.3536   28.5225 H   0  0  0  0  0  0  0  0  0  0  0  0
  1  2  1  0
  2  3  2  0
  3  4  1  0
  4  5  2  0
  5  6  1  0
  6  7  2  0
  6  8  2  0
  6  9  1  0
  9 10  1  0
 10 11  1  0
 11 12  1  0
 12 13  1  0
 13 14  2  0
 14 15  1  0
 14 16  1  0
 16 17  2  0
 17 18  1  0
 18 19  1  0
 19 20  2  0
 19 21  2  0
 19 22  1  0
 22 23  1  0
 23 24  1  0
 24 25  1  0
 25 26  1  0
 26 27  1  0
 18 28  1  0
 28 29  2  0
 29 30  1  0
  5 31  1  0
 31 32  2  0
 32  2  1  0
 30 12  2  0
 30 16  1  0
 27 22  1  0
  1 33  1  0
  1 34  1  0
  3 35  1  0
  4 36  1  0
  9 37  1  0
 10 38  1  0
 10 39  1  0
 11 40  1  0
 11 41  1  0
 15 42  1  0
 17 43  1  0
 23 44  1  0
 23 45  1  0
 24 46  1  0
 24 47  1  0
 25 48  1  0
 26 49  1  0
 26 50  1  0
 27 51  1  0
 27 52  1  0
 28 53  1  0
 31 54  1  0
M  END
>  <Energy>  (154) 
-156.29560689393227

>  <compound_id>  (154) 
236

>  <target_id>  (154) 
1

>  <reference_id>  (154) 
164

>  <inspiration_ids>  (154) 
[199, 164]

>  <energy_score>  (154) 
-112.23398742803771

>  <distance_score>  (154) 
1.2352051551352445

>  <path>  (154) 
/opt/xchem-fragalysis-2/maxwin/BulkDock/SCRATCH/505737/C236-P164/C236-P164.minimised.mol

>  <scratch_subdir>  (154) 
/opt/xchem-fragalysis-2/maxwin/BulkDock/SCRATCH/505737/C236-P164

>  <fragmenstein_runtime>  (154) 
5.027681827545166

>  <fragmenstein_outcome>  (154) 
too moved

>  <fragmenstein_mode>  (154) 
expansion

>  <fragmenstein_error>  (154) 


$$$$
C237-P199
     RDKit          3D

 66 70  0  0  0  0  0  0  0  0999 V2000
   -1.9808    1.5557   26.6764 N   0  0  0  0  0  0  0  0  0  0  0  0
   -1.7353    0.7286   27.7697 C   0  0  0  0  0  0  0  0  0  0  0  0
   -0.8495    1.0995   28.7688 C   0  0  0  0  0  0  0  0  0  0  0  0
   -0.7148    0.2762   29.8854 C   0  0  0  0  0  0  0  0  0  0  0  0
   -1.4590   -0.8996   29.9436 C   0  0  0  0  0  0  0  0  0  0  0  0
   -1.3860   -1.9370   31.3562 S   0  0  0  0  0  0  0  0  0  0  0  0
   -2.4261   -2.9407   31.2761 O   0  0  0  0  0  0  0  0  0  0  0  0
   -1.2544   -1.0781   32.5112 O   0  0  0  0  0  0  0  0  0  0  0  0
    0.0754   -2.6894   31.1227 N   0  0  0  0  0  0  0  0  0  0  0  0
    0.2549   -3.5851   29.9820 C   0  0  0  0  0  0  0  0  0  0  0  0
    1.2305   -4.7287   30.3257 C   0  0  0  0  0  0  0  0  0  0  0  0
    2.6588   -4.3219   30.3995 N   0  0  0  0  0  0  0  0  0  0  0  0
    3.3715   -3.8336   31.5681 C   0  0  0  0  0  0  0  0  0  0  0  0
    3.4003   -4.8869   33.0587 S   0  0  0  0  0  0  0  0  0  0  0  0
    5.0893   -3.8508   30.9102 Cl  0  0  0  0  0  0  0  0  0  0  0  0
    3.1747   -2.3365   32.0417 C   0  0  0  0  0  0  0  0  0  0  0  0
    2.3795   -1.5794   31.6286 O   0  0  0  0  0  0  0  0  0  0  0  0
    4.2008   -2.1900   33.2196 N   0  0  0  0  0  0  0  0  0  0  0  0
    4.3839   -1.1185   34.1826 C   0  0  0  0  0  0  0  0  0  0  0  0
    4.3940   -1.9722   35.5368 C   0  0  0  0  0  0  0  0  0  0  0  0
    5.5081   -2.3680   36.1755 N   0  0  0  0  0  0  0  0  0  0  0  0
    5.0662   -3.4622   36.8421 N   0  0  0  0  0  0  0  0  0  0  0  0
    3.7755   -3.7587   36.5162 C   0  0  0  0  0  0  0  0  0  0  0  0
    3.0090   -4.9112   36.8654 C   0  0  0  0  0  0  0  0  0  0  0  0
    1.6717   -5.0808   36.5600 C   0  0  0  0  0  0  0  0  0  0  0  0
    1.1566   -6.3194   37.0254 C   0  0  0  0  0  0  0  0  0  0  0  0
    2.1251   -7.0670   37.6603 C   0  0  0  0  0  0  0  0  0  0  0  0
    3.6385   -6.2626   37.6961 S   0  0  0  0  0  0  0  0  0  0  0  0
    3.3114   -2.7901   35.7648 N   0  0  0  0  0  0  0  0  0  0  0  0
    3.4447    0.0948   34.1595 C   0  0  0  0  0  0  0  0  0  0  0  0
    4.5284    0.8268   33.3373 C   0  0  0  0  0  0  0  0  0  0  0  0
    5.5581   -0.1627   33.9288 C   0  0  0  0  0  0  0  0  0  0  0  0
    0.5732   -5.6846   31.3357 C   0  0  0  0  0  0  0  0  0  0  0  0
    0.4870   -5.3001   32.6180 N   0  0  0  0  0  0  0  0  0  0  0  0
   -0.1848   -6.0982   33.4660 C   0  0  0  0  0  0  0  0  0  0  0  0
   -0.7897   -7.2661   33.0914 C   0  0  0  0  0  0  0  0  0  0  0  0
   -0.7077   -7.5446   31.7538 C   0  0  0  0  0  0  0  0  0  0  0  0
   -1.3987   -8.6055   31.2317 O   0  0  0  0  0  0  0  0  0  0  0  0
   -0.0375   -6.7953   30.8590 N   0  0  0  0  0  0  0  0  0  0  0  0
   -2.2773   -1.2217   28.8867 C   0  0  0  0  0  0  0  0  0  0  0  0
   -2.4245   -0.4200   27.8074 N   0  0  0  0  0  0  0  0  0  0  0  0
   -2.3292    2.4590   26.9858 H   0  0  0  0  0  0  0  0  0  0  0  0
   -2.7044    1.0692   26.1447 H   0  0  0  0  0  0  0  0  0  0  0  0
   -0.2924    2.0273   28.6934 H   0  0  0  0  0  0  0  0  0  0  0  0
   -0.0471    0.5587   30.6957 H   0  0  0  0  0  0  0  0  0  0  0  0
    0.8637   -2.0928   31.4009 H   0  0  0  0  0  0  0  0  0  0  0  0
   -0.7031   -4.0135   29.6667 H   0  0  0  0  0  0  0  0  0  0  0  0
    0.6428   -3.0045   29.1365 H   0  0  0  0  0  0  0  0  0  0  0  0
    1.2468   -5.3297   29.4070 H   0  0  0  0  0  0  0  0  0  0  0  0
    2.8422   -3.6548   29.6519 H   0  0  0  0  0  0  0  0  0  0  0  0
    4.7033   -5.1826   32.9771 H   0  0  0  0  0  0  0  0  0  0  0  0
    4.7979   -3.0101   33.2541 H   0  0  0  0  0  0  0  0  0  0  0  0
    5.7024   -3.9815   37.4349 H   0  0  0  0  0  0  0  0  0  0  0  0
    1.0913   -4.3301   36.0328 H   0  0  0  0  0  0  0  0  0  0  0  0
    0.1312   -6.6496   36.9118 H   0  0  0  0  0  0  0  0  0  0  0  0
    2.0121   -8.0442   38.1118 H   0  0  0  0  0  0  0  0  0  0  0  0
    3.2724    0.5481   35.1438 H   0  0  0  0  0  0  0  0  0  0  0  0
    2.4763   -0.0211   33.6679 H   0  0  0  0  0  0  0  0  0  0  0  0
    4.6834    1.8794   33.5868 H   0  0  0  0  0  0  0  0  0  0  0  0
    4.3986    0.7323   32.2531 H   0  0  0  0  0  0  0  0  0  0  0  0
    6.3266   -0.5051   33.2298 H   0  0  0  0  0  0  0  0  0  0  0  0
    6.0487    0.2129   34.8346 H   0  0  0  0  0  0  0  0  0  0  0  0
   -0.2526   -5.7351   34.4849 H   0  0  0  0  0  0  0  0  0  0  0  0
   -1.3274   -7.8778   33.8007 H   0  0  0  0  0  0  0  0  0  0  0  0
   -1.8354   -9.0682   31.9713 H   0  0  0  0  0  0  0  0  0  0  0  0
   -2.8741   -2.1272   28.8635 H   0  0  0  0  0  0  0  0  0  0  0  0
  1  2  1  0
  2  3  2  0
  3  4  1  0
  4  5  2  0
  5  6  1  0
  6  7  2  0
  6  8  2  0
  6  9  1  0
  9 10  1  0
 10 11  1  0
 11 12  1  0
 12 13  1  0
 13 14  1  0
 13 15  1  0
 13 16  1  0
 16 17  2  0
 16 18  1  0
 18 19  1  0
 19 20  1  0
 20 21  2  0
 21 22  1  0
 22 23  1  0
 23 24  1  0
 24 25  2  0
 25 26  1  0
 26 27  2  0
 27 28  1  0
 23 29  2  0
 19 30  1  0
 30 31  1  0
 31 32  1  0
 11 33  1  0
 33 34  2  0
 34 35  1  0
 35 36  2  0
 36 37  1  0
 37 38  1  0
 37 39  2  0
  5 40  1  0
 40 41  2  0
 41  2  1  0
 32 19  1  0
 39 33  1  0
 29 20  1  0
 28 24  1  0
  1 42  1  0
  1 43  1  0
  3 44  1  0
  4 45  1  0
  9 46  1  0
 10 47  1  0
 10 48  1  0
 11 49  1  0
 12 50  1  0
 14 51  1  0
 18 52  1  0
 22 53  1  0
 25 54  1  0
 26 55  1  0
 27 56  1  0
 30 57  1  0
 30 58  1  0
 31 59  1  0
 31 60  1  0
 32 61  1  0
 32 62  1  0
 35 63  1  0
 36 64  1  0
 38 65  1  0
 40 66  1  0
M  END
>  <Energy>  (155) 
20.036641089957811

>  <compound_id>  (155) 
237

>  <target_id>  (155) 
1

>  <reference_id>  (155) 
199

>  <inspiration_ids>  (155) 
[199, 165]

>  <energy_score>  (155) 
-271.74585109891353

>  <distance_score>  (155) 
1.2206677684710692

>  <path>  (155) 
/opt/xchem-fragalysis-2/maxwin/BulkDock/SCRATCH/505737/C237-P199/C237-P199.minimised.mol

>  <scratch_subdir>  (155) 
/opt/xchem-fragalysis-2/maxwin/BulkDock/SCRATCH/505737/C237-P199

>  <fragmenstein_runtime>  (155) 
7.8414952754974365

>  <fragmenstein_outcome>  (155) 
too moved

>  <fragmenstein_mode>  (155) 
expansion

>  <fragmenstein_error>  (155) 


$$$$
C237-P165
     RDKit          3D

 66 70  0  0  0  0  0  0  0  0999 V2000
   -1.6174    1.6916   26.7438 N   0  0  0  0  0  0  0  0  0  0  0  0
   -1.3017    0.8321   27.7892 C   0  0  0  0  0  0  0  0  0  0  0  0
   -0.5945    1.2650   28.8979 C   0  0  0  0  0  0  0  0  0  0  0  0
   -0.4308    0.3954   29.9788 C   0  0  0  0  0  0  0  0  0  0  0  0
   -0.9525   -0.8883   29.8860 C   0  0  0  0  0  0  0  0  0  0  0  0
   -0.9234   -2.0066   31.2335 S   0  0  0  0  0  0  0  0  0  0  0  0
   -2.0653   -2.8950   31.1679 O   0  0  0  0  0  0  0  0  0  0  0  0
   -0.6561   -1.2477   32.4364 O   0  0  0  0  0  0  0  0  0  0  0  0
    0.4548   -2.8926   30.9096 N   0  0  0  0  0  0  0  0  0  0  0  0
    0.4059   -3.8671   29.7937 C   0  0  0  0  0  0  0  0  0  0  0  0
    1.3404   -5.0636   30.0708 C   0  0  0  0  0  0  0  0  0  0  0  0
    2.6926   -4.6659   30.5459 N   0  0  0  0  0  0  0  0  0  0  0  0
    3.7287   -4.4511   29.5130 C   0  0  0  0  0  0  0  0  0  0  0  0
    3.9267   -5.8562   28.3673 S   0  0  0  0  0  0  0  0  0  0  0  0
    3.3949   -2.9559   28.6247 Cl  0  0  0  0  0  0  0  0  0  0  0  0
    5.1309   -4.2065   30.2507 C   0  0  0  0  0  0  0  0  0  0  0  0
    6.1571   -4.5762   29.8229 O   0  0  0  0  0  0  0  0  0  0  0  0
    4.7928   -3.5102   31.6065 N   0  0  0  0  0  0  0  0  0  0  0  0
    5.6415   -3.2131   32.7570 C   0  0  0  0  0  0  0  0  0  0  0  0
    5.2385   -4.2009   33.9287 C   0  0  0  0  0  0  0  0  0  0  0  0
    6.0478   -5.1169   34.4785 N   0  0  0  0  0  0  0  0  0  0  0  0
    5.2075   -5.7535   35.3143 N   0  0  0  0  0  0  0  0  0  0  0  0
    3.9393   -5.2630   35.2122 C   0  0  0  0  0  0  0  0  0  0  0  0
    2.7868   -5.7255   35.9133 C   0  0  0  0  0  0  0  0  0  0  0  0
    1.6172   -5.0130   36.0909 C   0  0  0  0  0  0  0  0  0  0  0  0
    0.6321   -5.7521   36.8059 C   0  0  0  0  0  0  0  0  0  0  0  0
    1.0773   -7.0144   37.1352 C   0  0  0  0  0  0  0  0  0  0  0  0
    2.6862   -7.2818   36.6128 S   0  0  0  0  0  0  0  0  0  0  0  0
    3.9346   -4.2745   34.3475 N   0  0  0  0  0  0  0  0  0  0  0  0
    7.1533   -3.0418   32.4762 C   0  0  0  0  0  0  0  0  0  0  0  0
    7.1419   -1.8449   33.4485 C   0  0  0  0  0  0  0  0  0  0  0  0
    5.6294   -1.7195   33.1763 C   0  0  0  0  0  0  0  0  0  0  0  0
    0.6071   -5.9518   31.0925 C   0  0  0  0  0  0  0  0  0  0  0  0
    0.4935   -5.4913   32.3570 N   0  0  0  0  0  0  0  0  0  0  0  0
   -0.2845   -6.2059   33.1944 C   0  0  0  0  0  0  0  0  0  0  0  0
   -0.9062   -7.3711   32.8372 C   0  0  0  0  0  0  0  0  0  0  0  0
   -0.6723   -7.7626   31.5496 C   0  0  0  0  0  0  0  0  0  0  0  0
   -1.1939   -8.9328   31.1011 O   0  0  0  0  0  0  0  0  0  0  0  0
    0.0757   -7.1073   30.6547 N   0  0  0  0  0  0  0  0  0  0  0  0
   -1.5589   -1.2668   28.7108 C   0  0  0  0  0  0  0  0  0  0  0  0
   -1.7433   -0.4246   27.6729 N   0  0  0  0  0  0  0  0  0  0  0  0
   -2.1289    2.5045   27.0809 H   0  0  0  0  0  0  0  0  0  0  0  0
   -2.2104    1.1464   26.1174 H   0  0  0  0  0  0  0  0  0  0  0  0
   -0.2138    2.2807   28.9380 H   0  0  0  0  0  0  0  0  0  0  0  0
    0.0829    0.7309   30.8749 H   0  0  0  0  0  0  0  0  0  0  0  0
    0.9047   -3.2218   31.7699 H   0  0  0  0  0  0  0  0  0  0  0  0
   -0.6141   -4.2295   29.6333 H   0  0  0  0  0  0  0  0  0  0  0  0
    0.6989   -3.3506   28.8759 H   0  0  0  0  0  0  0  0  0  0  0  0
    1.4076   -5.6627   29.1637 H   0  0  0  0  0  0  0  0  0  0  0  0
    3.0274   -5.4099   31.1571 H   0  0  0  0  0  0  0  0  0  0  0  0
    5.1327   -5.4645   27.9190 H   0  0  0  0  0  0  0  0  0  0  0  0
    3.7803   -3.3996   31.6906 H   0  0  0  0  0  0  0  0  0  0  0  0
    5.5532   -6.5007   35.9049 H   0  0  0  0  0  0  0  0  0  0  0  0
    1.4749   -4.0037   35.7184 H   0  0  0  0  0  0  0  0  0  0  0  0
   -0.3548   -5.3819   37.0578 H   0  0  0  0  0  0  0  0  0  0  0  0
    0.5399   -7.7947   37.6612 H   0  0  0  0  0  0  0  0  0  0  0  0
    7.3979   -2.7469   31.4483 H   0  0  0  0  0  0  0  0  0  0  0  0
    7.8130   -3.8671   32.7581 H   0  0  0  0  0  0  0  0  0  0  0  0
    7.7500   -0.9866   33.1518 H   0  0  0  0  0  0  0  0  0  0  0  0
    7.3853   -2.1119   34.4832 H   0  0  0  0  0  0  0  0  0  0  0  0
    5.0209   -1.4542   34.0460 H   0  0  0  0  0  0  0  0  0  0  0  0
    5.3901   -1.0235   32.3626 H   0  0  0  0  0  0  0  0  0  0  0  0
   -0.4135   -5.7871   34.1858 H   0  0  0  0  0  0  0  0  0  0  0  0
   -1.5131   -7.9496   33.5186 H   0  0  0  0  0  0  0  0  0  0  0  0
   -0.4900   -9.2555   30.4999 H   0  0  0  0  0  0  0  0  0  0  0  0
   -1.9543   -2.2632   28.5531 H   0  0  0  0  0  0  0  0  0  0  0  0
  1  2  1  0
  2  3  2  0
  3  4  1  0
  4  5  2  0
  5  6  1  0
  6  7  2  0
  6  8  2  0
  6  9  1  0
  9 10  1  0
 10 11  1  0
 11 12  1  0
 12 13  1  0
 13 14  1  0
 13 15  1  0
 13 16  1  0
 16 17  2  0
 16 18  1  0
 18 19  1  0
 19 20  1  0
 20 21  2  0
 21 22  1  0
 22 23  1  0
 23 24  1  0
 24 25  2  0
 25 26  1  0
 26 27  2  0
 27 28  1  0
 23 29  2  0
 19 30  1  0
 30 31  1  0
 31 32  1  0
 11 33  1  0
 33 34  2  0
 34 35  1  0
 35 36  2  0
 36 37  1  0
 37 38  1  0
 37 39  2  0
  5 40  1  0
 40 41  2  0
 41  2  1  0
 32 19  1  0
 39 33  1  0
 29 20  1  0
 28 24  1  0
  1 42  1  0
  1 43  1  0
  3 44  1  0
  4 45  1  0
  9 46  1  0
 10 47  1  0
 10 48  1  0
 11 49  1  0
 12 50  1  0
 14 51  1  0
 18 52  1  0
 22 53  1  0
 25 54  1  0
 26 55  1  0
 27 56  1  0
 30 57  1  0
 30 58  1  0
 31 59  1  0
 31 60  1  0
 32 61  1  0
 32 62  1  0
 35 63  1  0
 36 64  1  0
 38 65  1  0
 40 66  1  0
M  END
>  <Energy>  (156) 
-19.10653774612182

>  <compound_id>  (156) 
237

>  <target_id>  (156) 
1

>  <reference_id>  (156) 
165

>  <inspiration_ids>  (156) 
[199, 165]

>  <energy_score>  (156) 
-310.8890299349921

>  <distance_score>  (156) 
0.981104881309437

>  <path>  (156) 
/opt/xchem-fragalysis-2/maxwin/BulkDock/SCRATCH/505737/C237-P165/C237-P165.minimised.mol

>  <scratch_subdir>  (156) 
/opt/xchem-fragalysis-2/maxwin/BulkDock/SCRATCH/505737/C237-P165

>  <fragmenstein_runtime>  (156) 
9.957937955856323

>  <fragmenstein_outcome>  (156) 
acceptable

>  <fragmenstein_mode>  (156) 
expansion

>  <fragmenstein_error>  (156) 


$$$$
C256-P199
     RDKit          3D

 57 60  0  0  0  0  0  0  0  0999 V2000
   -4.2792   -0.9458   32.6817 C   0  0  0  0  0  0  0  0  0  0  0  0
   -3.3631   -2.0081   33.2678 C   0  0  0  0  0  0  0  0  0  0  0  0
   -1.8904   -1.5963   33.1910 C   0  0  0  0  0  0  0  0  0  0  0  0
   -1.3088   -2.0162   31.8935 C   0  0  0  0  0  0  0  0  0  0  0  0
   -0.9895   -3.3386   31.7299 N   0  0  0  0  0  0  0  0  0  0  0  0
   -0.4720   -3.4539   30.5227 C   0  0  0  0  0  0  0  0  0  0  0  0
    0.3707   -4.6022   30.0558 C   0  0  0  0  0  0  0  0  0  0  0  0
    0.0870   -5.8739   30.8207 C   0  0  0  0  0  0  0  0  0  0  0  0
   -0.3855   -6.9912   30.2869 N   0  0  0  0  0  0  0  0  0  0  0  0
   -0.8320   -7.7375   31.3315 C   0  0  0  0  0  0  0  0  0  0  0  0
   -1.5497   -8.8572   31.2007 O   0  0  0  0  0  0  0  0  0  0  0  0
   -0.5299   -7.1567   32.5303 C   0  0  0  0  0  0  0  0  0  0  0  0
   -0.7705   -7.4396   33.8982 C   0  0  0  0  0  0  0  0  0  0  0  0
   -0.2431   -6.6408   34.8366 C   0  0  0  0  0  0  0  0  0  0  0  0
    0.5616   -5.4901   34.4756 C   0  0  0  0  0  0  0  0  0  0  0  0
    0.7403   -5.1865   33.1804 C   0  0  0  0  0  0  0  0  0  0  0  0
    0.1669   -5.9974   32.2046 N   0  0  0  0  0  0  0  0  0  0  0  0
   -0.7371   -2.2936   29.8432 N   0  0  0  0  0  0  0  0  0  0  0  0
   -0.9684   -1.3110   30.7592 C   0  0  0  0  0  0  0  0  0  0  0  0
   -0.7634    0.1229   30.4496 C   0  0  0  0  0  0  0  0  0  0  0  0
   -1.2551    0.5632   29.0787 C   0  0  0  0  0  0  0  0  0  0  0  0
   -0.5783    1.8893   28.6485 C   0  0  0  0  0  0  0  0  0  0  0  0
   -0.8931    2.4824   27.2636 C   0  0  0  0  0  0  0  0  0  0  0  0
   -2.2969    3.0377   27.0472 C   0  0  0  0  0  0  0  0  0  0  0  0
   -2.4129    3.5485   25.7097 N   0  0  0  0  0  0  0  0  0  0  0  0
   -3.2766    2.0042   27.0891 N   0  0  0  0  0  0  0  0  0  0  0  0
   -0.8704   -0.6495   27.8367 S   0  0  0  0  0  0  0  0  0  0  0  0
    0.5502   -0.5243   27.5818 O   0  0  0  0  0  0  0  0  0  0  0  0
   -1.9017   -0.4566   26.8427 O   0  0  0  0  0  0  0  0  0  0  0  0
   -1.1006   -2.1483   28.4903 N   0  0  0  0  0  0  0  0  0  0  0  0
   -5.3218   -1.2736   32.7389 H   0  0  0  0  0  0  0  0  0  0  0  0
   -4.0363   -0.7458   31.6342 H   0  0  0  0  0  0  0  0  0  0  0  0
   -4.1914   -0.0108   33.2432 H   0  0  0  0  0  0  0  0  0  0  0  0
   -3.6393   -2.1422   34.3203 H   0  0  0  0  0  0  0  0  0  0  0  0
   -3.5493   -2.9542   32.7509 H   0  0  0  0  0  0  0  0  0  0  0  0
   -1.7673   -0.5200   33.3530 H   0  0  0  0  0  0  0  0  0  0  0  0
   -1.3387   -2.1025   33.9930 H   0  0  0  0  0  0  0  0  0  0  0  0
    0.1862   -4.7603   28.9929 H   0  0  0  0  0  0  0  0  0  0  0  0
    1.4300   -4.3452   30.1692 H   0  0  0  0  0  0  0  0  0  0  0  0
   -1.8664   -9.1527   32.0722 H   0  0  0  0  0  0  0  0  0  0  0  0
   -1.4015   -8.2676   34.1851 H   0  0  0  0  0  0  0  0  0  0  0  0
   -0.4341   -6.8159   35.8910 H   0  0  0  0  0  0  0  0  0  0  0  0
    0.9636   -4.8658   35.2663 H   0  0  0  0  0  0  0  0  0  0  0  0
    1.2866   -4.3107   32.8566 H   0  0  0  0  0  0  0  0  0  0  0  0
   -1.2305    0.7352   31.2259 H   0  0  0  0  0  0  0  0  0  0  0  0
    0.3158    0.3120   30.5330 H   0  0  0  0  0  0  0  0  0  0  0  0
   -2.3440    0.6552   29.1091 H   0  0  0  0  0  0  0  0  0  0  0  0
    0.5103    1.7300   28.6621 H   0  0  0  0  0  0  0  0  0  0  0  0
   -0.7152    2.6729   29.3945 H   0  0  0  0  0  0  0  0  0  0  0  0
   -0.1857    3.3131   27.1201 H   0  0  0  0  0  0  0  0  0  0  0  0
   -0.6293    1.7688   26.4795 H   0  0  0  0  0  0  0  0  0  0  0  0
   -2.5156    3.8213   27.7794 H   0  0  0  0  0  0  0  0  0  0  0  0
   -3.3167    4.0087   25.6061 H   0  0  0  0  0  0  0  0  0  0  0  0
   -1.7332    4.2956   25.5743 H   0  0  0  0  0  0  0  0  0  0  0  0
   -2.9662    1.2432   26.4739 H   0  0  0  0  0  0  0  0  0  0  0  0
   -4.1236    2.3538   26.6498 H   0  0  0  0  0  0  0  0  0  0  0  0
   -1.9820   -2.5851   28.1868 H   0  0  0  0  0  0  0  0  0  0  0  0
  1  2  1  0
  2  3  1  0
  3  4  1  0
  4  5  1  0
  5  6  2  0
  6  7  1  0
  7  8  1  0
  8  9  2  0
  9 10  1  0
 10 11  1  0
 10 12  2  0
 12 13  1  0
 13 14  2  0
 14 15  1  0
 15 16  2  0
 16 17  1  0
  6 18  1  0
 18 19  1  0
 19 20  1  0
 20 21  1  0
 21 22  1  0
 22 23  1  0
 23 24  1  0
 24 25  1  0
 24 26  1  0
 21 27  1  0
 27 28  2  0
 27 29  2  0
 27 30  1  0
 19  4  2  0
 17  8  1  0
 30 18  1  0
 17 12  1  0
  1 31  1  0
  1 32  1  0
  1 33  1  0
  2 34  1  0
  2 35  1  0
  3 36  1  0
  3 37  1  0
  7 38  1  0
  7 39  1  0
 11 40  1  0
 13 41  1  0
 14 42  1  0
 15 43  1  0
 16 44  1  0
 20 45  1  0
 20 46  1  0
 21 47  1  0
 22 48  1  0
 22 49  1  0
 23 50  1  0
 23 51  1  0
 24 52  1  0
 25 53  1  0
 25 54  1  0
 26 55  1  0
 26 56  1  0
 30 57  1  0
M  END
>  <Energy>  (157) 
-157.76721437765408

>  <compound_id>  (157) 
256

>  <target_id>  (157) 
1

>  <reference_id>  (157) 
199

>  <inspiration_ids>  (157) 
[199, 167]

>  <energy_score>  (157) 
-58.8778694825817

>  <distance_score>  (157) 
1.9975587599095632

>  <path>  (157) 
/opt/xchem-fragalysis-2/maxwin/BulkDock/SCRATCH/505737/C256-P199/C256-P199.minimised.mol

>  <scratch_subdir>  (157) 
/opt/xchem-fragalysis-2/maxwin/BulkDock/SCRATCH/505737/C256-P199

>  <fragmenstein_runtime>  (157) 
4.647031545639038

>  <fragmenstein_outcome>  (157) 
too moved

>  <fragmenstein_mode>  (157) 
expansion

>  <fragmenstein_error>  (157) 


$$$$
C256-P167
     RDKit          3D

 57 60  0  0  0  0  0  0  0  0999 V2000
   -3.4872   -1.6099   33.0833 C   0  0  0  0  0  0  0  0  0  0  0  0
   -2.2610   -1.6367   33.9825 C   0  0  0  0  0  0  0  0  0  0  0  0
   -1.0007   -1.0383   33.3640 C   0  0  0  0  0  0  0  0  0  0  0  0
   -0.6570   -1.6820   32.0735 C   0  0  0  0  0  0  0  0  0  0  0  0
   -0.3310   -3.0102   32.0129 N   0  0  0  0  0  0  0  0  0  0  0  0
   -0.1204   -3.2984   30.7396 C   0  0  0  0  0  0  0  0  0  0  0  0
    0.5240   -4.5641   30.2407 C   0  0  0  0  0  0  0  0  0  0  0  0
    0.0667   -5.8197   30.9485 C   0  0  0  0  0  0  0  0  0  0  0  0
   -0.4792   -6.8636   30.3381 N   0  0  0  0  0  0  0  0  0  0  0  0
   -0.9420   -7.6769   31.3243 C   0  0  0  0  0  0  0  0  0  0  0  0
   -1.6834   -8.7701   31.1187 O   0  0  0  0  0  0  0  0  0  0  0  0
   -0.6093   -7.2048   32.5601 C   0  0  0  0  0  0  0  0  0  0  0  0
   -0.8382   -7.6084   33.9006 C   0  0  0  0  0  0  0  0  0  0  0  0
   -0.2649   -6.9152   34.8944 C   0  0  0  0  0  0  0  0  0  0  0  0
    0.5763   -5.7662   34.6222 C   0  0  0  0  0  0  0  0  0  0  0  0
    0.7511   -5.3554   33.3563 C   0  0  0  0  0  0  0  0  0  0  0  0
    0.1304   -6.0476   32.3208 N   0  0  0  0  0  0  0  0  0  0  0  0
   -0.4787   -2.2006   29.9872 N   0  0  0  0  0  0  0  0  0  0  0  0
   -0.5838   -1.1231   30.8213 C   0  0  0  0  0  0  0  0  0  0  0  0
   -0.5724    0.2900   30.3688 C   0  0  0  0  0  0  0  0  0  0  0  0
   -1.3928    0.4904   29.1198 C   0  0  0  0  0  0  0  0  0  0  0  0
   -1.2621    1.9198   28.5596 C   0  0  0  0  0  0  0  0  0  0  0  0
   -1.9143    2.1908   27.1923 C   0  0  0  0  0  0  0  0  0  0  0  0
   -1.9693    3.6821   26.8294 C   0  0  0  0  0  0  0  0  0  0  0  0
   -0.6871    4.3226   26.7481 N   0  0  0  0  0  0  0  0  0  0  0  0
   -2.4432    3.8364   25.4818 N   0  0  0  0  0  0  0  0  0  0  0  0
   -0.8740   -0.6736   27.8974 S   0  0  0  0  0  0  0  0  0  0  0  0
    0.4888   -0.3149   27.5715 O   0  0  0  0  0  0  0  0  0  0  0  0
   -1.9802   -0.6897   26.9738 O   0  0  0  0  0  0  0  0  0  0  0  0
   -0.8586   -2.1656   28.6242 N   0  0  0  0  0  0  0  0  0  0  0  0
   -4.3659   -1.9590   33.6353 H   0  0  0  0  0  0  0  0  0  0  0  0
   -3.3657   -2.2605   32.2119 H   0  0  0  0  0  0  0  0  0  0  0  0
   -3.6911   -0.5937   32.7313 H   0  0  0  0  0  0  0  0  0  0  0  0
   -2.4925   -1.0710   34.8938 H   0  0  0  0  0  0  0  0  0  0  0  0
   -2.0286   -2.6448   34.3155 H   0  0  0  0  0  0  0  0  0  0  0  0
   -1.1439    0.0401   33.2343 H   0  0  0  0  0  0  0  0  0  0  0  0
   -0.1621   -1.1585   34.0602 H   0  0  0  0  0  0  0  0  0  0  0  0
    0.3292   -4.6723   29.1691 H   0  0  0  0  0  0  0  0  0  0  0  0
    1.6105   -4.4733   30.3578 H   0  0  0  0  0  0  0  0  0  0  0  0
   -2.0068   -9.1202   31.9686 H   0  0  0  0  0  0  0  0  0  0  0  0
   -1.4824   -8.4503   34.1295 H   0  0  0  0  0  0  0  0  0  0  0  0
   -0.4401   -7.1926   35.9297 H   0  0  0  0  0  0  0  0  0  0  0  0
    1.0255   -5.2391   35.4563 H   0  0  0  0  0  0  0  0  0  0  0  0
    1.3463   -4.4880   33.1042 H   0  0  0  0  0  0  0  0  0  0  0  0
   -0.9497    0.9441   31.1610 H   0  0  0  0  0  0  0  0  0  0  0  0
    0.4722    0.5833   30.2010 H   0  0  0  0  0  0  0  0  0  0  0  0
   -2.4293    0.2657   29.3568 H   0  0  0  0  0  0  0  0  0  0  0  0
   -0.1956    2.1683   28.4854 H   0  0  0  0  0  0  0  0  0  0  0  0
   -1.6825    2.6237   29.2775 H   0  0  0  0  0  0  0  0  0  0  0  0
   -1.3532    1.6664   26.4133 H   0  0  0  0  0  0  0  0  0  0  0  0
   -2.9357    1.7955   27.1841 H   0  0  0  0  0  0  0  0  0  0  0  0
   -2.6104    4.2123   27.5390 H   0  0  0  0  0  0  0  0  0  0  0  0
   -0.1494    4.1545   27.5909 H   0  0  0  0  0  0  0  0  0  0  0  0
   -0.1871    3.8844   25.9785 H   0  0  0  0  0  0  0  0  0  0  0  0
   -2.5310    4.8422   25.3284 H   0  0  0  0  0  0  0  0  0  0  0  0
   -3.3955    3.4780   25.4137 H   0  0  0  0  0  0  0  0  0  0  0  0
   -1.6965   -2.6967   28.3576 H   0  0  0  0  0  0  0  0  0  0  0  0
  1  2  1  0
  2  3  1  0
  3  4  1  0
  4  5  1  0
  5  6  2  0
  6  7  1  0
  7  8  1  0
  8  9  2  0
  9 10  1  0
 10 11  1  0
 10 12  2  0
 12 13  1  0
 13 14  2  0
 14 15  1  0
 15 16  2  0
 16 17  1  0
  6 18  1  0
 18 19  1  0
 19 20  1  0
 20 21  1  0
 21 22  1  0
 22 23  1  0
 23 24  1  0
 24 25  1  0
 24 26  1  0
 21 27  1  0
 27 28  2  0
 27 29  2  0
 27 30  1  0
 19  4  2  0
 17  8  1  0
 30 18  1  0
 17 12  1  0
  1 31  1  0
  1 32  1  0
  1 33  1  0
  2 34  1  0
  2 35  1  0
  3 36  1  0
  3 37  1  0
  7 38  1  0
  7 39  1  0
 11 40  1  0
 13 41  1  0
 14 42  1  0
 15 43  1  0
 16 44  1  0
 20 45  1  0
 20 46  1  0
 21 47  1  0
 22 48  1  0
 22 49  1  0
 23 50  1  0
 23 51  1  0
 24 52  1  0
 25 53  1  0
 25 54  1  0
 26 55  1  0
 26 56  1  0
 30 57  1  0
M  END
>  <Energy>  (158) 
-165.64668520154382

>  <compound_id>  (158) 
256

>  <target_id>  (158) 
1

>  <reference_id>  (158) 
167

>  <inspiration_ids>  (158) 
[199, 167]

>  <energy_score>  (158) 
-66.75734030647186

>  <distance_score>  (158) 
1.9829386556251931

>  <path>  (158) 
/opt/xchem-fragalysis-2/maxwin/BulkDock/SCRATCH/505737/C256-P167/C256-P167.minimised.mol

>  <scratch_subdir>  (158) 
/opt/xchem-fragalysis-2/maxwin/BulkDock/SCRATCH/505737/C256-P167

>  <fragmenstein_runtime>  (158) 
4.283898830413818

>  <fragmenstein_outcome>  (158) 
too moved

>  <fragmenstein_mode>  (158) 
expansion

>  <fragmenstein_error>  (158) 


$$$$
C239-P199
     RDKit          3D

 41 43  0  0  0  0  0  0  0  0999 V2000
   -2.0772    1.5936   26.8686 N   0  0  0  0  0  0  0  0  0  0  0  0
   -1.7253    0.7085   27.8744 C   0  0  0  0  0  0  0  0  0  0  0  0
   -0.7972    1.0631   28.8407 C   0  0  0  0  0  0  0  0  0  0  0  0
   -0.5571    0.1871   29.8960 C   0  0  0  0  0  0  0  0  0  0  0  0
   -1.2452   -1.0232   29.9310 C   0  0  0  0  0  0  0  0  0  0  0  0
   -0.9987   -2.1478   31.2501 S   0  0  0  0  0  0  0  0  0  0  0  0
   -2.0370   -3.1542   31.2547 O   0  0  0  0  0  0  0  0  0  0  0  0
   -0.6853   -1.3753   32.4314 O   0  0  0  0  0  0  0  0  0  0  0  0
    0.4378   -2.8892   30.7953 N   0  0  0  0  0  0  0  0  0  0  0  0
    0.4621   -3.7604   29.6077 C   0  0  0  0  0  0  0  0  0  0  0  0
    1.2935   -5.0054   29.9219 C   0  0  0  0  0  0  0  0  0  0  0  0
    0.5365   -5.9750   30.7719 C   0  0  0  0  0  0  0  0  0  0  0  0
   -0.1775   -6.9958   30.3328 N   0  0  0  0  0  0  0  0  0  0  0  0
   -0.7222   -7.5759   31.4413 C   0  0  0  0  0  0  0  0  0  0  0  0
   -1.5644   -8.6162   31.3903 O   0  0  0  0  0  0  0  0  0  0  0  0
   -0.3053   -6.9460   32.5875 C   0  0  0  0  0  0  0  0  0  0  0  0
   -0.4868   -7.0975   33.9911 C   0  0  0  0  0  0  0  0  0  0  0  0
    0.1380   -6.2329   34.8207 C   0  0  0  0  0  0  0  0  0  0  0  0
    0.0231   -6.4585   36.5316 S   0  0  0  0  0  0  0  0  0  0  0  0
   -0.2531   -7.8445   36.8258 O   0  0  0  0  0  0  0  0  0  0  0  0
    1.1340   -5.7890   37.1802 O   0  0  0  0  0  0  0  0  0  0  0  0
   -1.2666   -5.6473   36.9810 F   0  0  0  0  0  0  0  0  0  0  0  0
    0.9671   -5.1429   34.3296 C   0  0  0  0  0  0  0  0  0  0  0  0
    1.1442   -5.0190   33.0122 C   0  0  0  0  0  0  0  0  0  0  0  0
    0.5096   -5.9066   32.1491 N   0  0  0  0  0  0  0  0  0  0  0  0
   -2.1454   -1.3063   28.9303 C   0  0  0  0  0  0  0  0  0  0  0  0
   -2.3909   -0.4546   27.9091 N   0  0  0  0  0  0  0  0  0  0  0  0
   -2.7517    1.1216   26.2696 H   0  0  0  0  0  0  0  0  0  0  0  0
   -1.2888    1.9761   26.3704 H   0  0  0  0  0  0  0  0  0  0  0  0
   -0.3031    2.0282   28.7987 H   0  0  0  0  0  0  0  0  0  0  0  0
    0.1414    0.4634   30.6808 H   0  0  0  0  0  0  0  0  0  0  0  0
    1.2534   -2.3016   30.9679 H   0  0  0  0  0  0  0  0  0  0  0  0
   -0.5459   -4.0443   29.2890 H   0  0  0  0  0  0  0  0  0  0  0  0
    0.9307   -3.2014   28.7905 H   0  0  0  0  0  0  0  0  0  0  0  0
    2.2409   -4.7270   30.3982 H   0  0  0  0  0  0  0  0  0  0  0  0
    1.5773   -5.5008   28.9908 H   0  0  0  0  0  0  0  0  0  0  0  0
   -1.8489   -8.8806   32.2848 H   0  0  0  0  0  0  0  0  0  0  0  0
   -1.0841   -7.9236   34.3715 H   0  0  0  0  0  0  0  0  0  0  0  0
    1.4346   -4.4560   35.0299 H   0  0  0  0  0  0  0  0  0  0  0  0
    1.7619   -4.2368   32.5950 H   0  0  0  0  0  0  0  0  0  0  0  0
   -2.7239   -2.2233   28.9052 H   0  0  0  0  0  0  0  0  0  0  0  0
  1  2  1  0
  2  3  2  0
  3  4  1  0
  4  5  2  0
  5  6  1  0
  6  7  2  0
  6  8  2  0
  6  9  1  0
  9 10  1  0
 10 11  1  0
 11 12  1  0
 12 13  2  0
 13 14  1  0
 14 15  1  0
 14 16  2  0
 16 17  1  0
 17 18  2  0
 18 19  1  0
 19 20  2  0
 19 21  2  0
 19 22  1  0
 18 23  1  0
 23 24  2  0
 24 25  1  0
  5 26  1  0
 26 27  2  0
 27  2  1  0
 25 12  1  0
 25 16  1  0
  1 28  1  0
  1 29  1  0
  3 30  1  0
  4 31  1  0
  9 32  1  0
 10 33  1  0
 10 34  1  0
 11 35  1  0
 11 36  1  0
 15 37  1  0
 17 38  1  0
 23 39  1  0
 24 40  1  0
 26 41  1  0
M  END
>  <Energy>  (159) 
-62.09194513313156

>  <compound_id>  (159) 
239

>  <target_id>  (159) 
1

>  <reference_id>  (159) 
199

>  <inspiration_ids>  (159) 
[199, 168]

>  <energy_score>  (159) 
-62.09409083508339

>  <distance_score>  (159) 
0.9210587292260306

>  <path>  (159) 
/opt/xchem-fragalysis-2/maxwin/BulkDock/SCRATCH/505737/C239-P199/C239-P199.minimised.mol

>  <scratch_subdir>  (159) 
/opt/xchem-fragalysis-2/maxwin/BulkDock/SCRATCH/505737/C239-P199

>  <fragmenstein_runtime>  (159) 
3.7426042556762695

>  <fragmenstein_outcome>  (159) 
acceptable

>  <fragmenstein_mode>  (159) 
expansion

>  <fragmenstein_error>  (159) 


$$$$
C239-P168
     RDKit          3D

 41 43  0  0  0  0  0  0  0  0999 V2000
   -1.5192    1.8436   26.8124 N   0  0  0  0  0  0  0  0  0  0  0  0
   -1.1387    0.9372   27.7930 C   0  0  0  0  0  0  0  0  0  0  0  0
   -0.4962    1.3420   28.9466 C   0  0  0  0  0  0  0  0  0  0  0  0
   -0.3067    0.4151   29.9730 C   0  0  0  0  0  0  0  0  0  0  0  0
   -0.7217   -0.8968   29.7756 C   0  0  0  0  0  0  0  0  0  0  0  0
   -0.6590   -2.0829   31.0647 S   0  0  0  0  0  0  0  0  0  0  0  0
   -1.7756   -2.9957   30.9640 O   0  0  0  0  0  0  0  0  0  0  0  0
   -0.3795   -1.3823   32.2994 O   0  0  0  0  0  0  0  0  0  0  0  0
    0.7488   -2.9148   30.6811 N   0  0  0  0  0  0  0  0  0  0  0  0
    0.7906   -3.7206   29.4468 C   0  0  0  0  0  0  0  0  0  0  0  0
    1.6052   -4.9912   29.6805 C   0  0  0  0  0  0  0  0  0  0  0  0
    0.8193   -5.9943   30.4485 C   0  0  0  0  0  0  0  0  0  0  0  0
    0.2230   -7.0527   29.9231 N   0  0  0  0  0  0  0  0  0  0  0  0
   -0.4524   -7.6199   30.9511 C   0  0  0  0  0  0  0  0  0  0  0  0
   -1.1085   -8.7782   30.8849 O   0  0  0  0  0  0  0  0  0  0  0  0
   -0.2711   -6.9357   32.1152 C   0  0  0  0  0  0  0  0  0  0  0  0
   -0.6928   -7.0885   33.4507 C   0  0  0  0  0  0  0  0  0  0  0  0
   -0.1886   -6.2561   34.3831 C   0  0  0  0  0  0  0  0  0  0  0  0
   -0.6946   -6.4895   36.0060 S   0  0  0  0  0  0  0  0  0  0  0  0
   -1.8369   -7.3791   36.0009 O   0  0  0  0  0  0  0  0  0  0  0  0
    0.4645   -6.7428   36.8391 O   0  0  0  0  0  0  0  0  0  0  0  0
   -1.2590   -5.0865   36.5017 F   0  0  0  0  0  0  0  0  0  0  0  0
    0.7840   -5.2234   34.0656 C   0  0  0  0  0  0  0  0  0  0  0  0
    1.1713   -5.0900   32.7903 C   0  0  0  0  0  0  0  0  0  0  0  0
    0.6245   -5.9264   31.8157 N   0  0  0  0  0  0  0  0  0  0  0  0
   -1.2364   -1.2417   28.5486 C   0  0  0  0  0  0  0  0  0  0  0  0
   -1.4604   -0.3399   27.5721 N   0  0  0  0  0  0  0  0  0  0  0  0
   -2.0546    1.2972   26.1384 H   0  0  0  0  0  0  0  0  0  0  0  0
   -2.1080    2.5768   27.2046 H   0  0  0  0  0  0  0  0  0  0  0  0
   -0.1991    2.3793   29.0655 H   0  0  0  0  0  0  0  0  0  0  0  0
    0.1345    0.7340   30.9132 H   0  0  0  0  0  0  0  0  0  0  0  0
    1.5854   -2.3758   30.9087 H   0  0  0  0  0  0  0  0  0  0  0  0
   -0.2136   -3.9884   29.1034 H   0  0  0  0  0  0  0  0  0  0  0  0
    1.2729   -3.1197   28.6684 H   0  0  0  0  0  0  0  0  0  0  0  0
    2.5544   -4.7703   30.1817 H   0  0  0  0  0  0  0  0  0  0  0  0
    1.8590   -5.4278   28.7065 H   0  0  0  0  0  0  0  0  0  0  0  0
   -0.5903   -9.3483   30.2796 H   0  0  0  0  0  0  0  0  0  0  0  0
   -1.3989   -7.8854   33.6781 H   0  0  0  0  0  0  0  0  0  0  0  0
    1.1793   -4.5922   34.8559 H   0  0  0  0  0  0  0  0  0  0  0  0
    1.9002   -4.3527   32.4852 H   0  0  0  0  0  0  0  0  0  0  0  0
   -1.5551   -2.2502   28.3020 H   0  0  0  0  0  0  0  0  0  0  0  0
  1  2  1  0
  2  3  2  0
  3  4  1  0
  4  5  2  0
  5  6  1  0
  6  7  2  0
  6  8  2  0
  6  9  1  0
  9 10  1  0
 10 11  1  0
 11 12  1  0
 12 13  2  0
 13 14  1  0
 14 15  1  0
 14 16  2  0
 16 17  1  0
 17 18  2  0
 18 19  1  0
 19 20  2  0
 19 21  2  0
 19 22  1  0
 18 23  1  0
 23 24  2  0
 24 25  1  0
  5 26  1  0
 26 27  2  0
 27  2  1  0
 25 12  1  0
 25 16  1  0
  1 28  1  0
  1 29  1  0
  3 30  1  0
  4 31  1  0
  9 32  1  0
 10 33  1  0
 10 34  1  0
 11 35  1  0
 11 36  1  0
 15 37  1  0
 17 38  1  0
 23 39  1  0
 24 40  1  0
 26 41  1  0
M  END
>  <Energy>  (160) 
-62.193747499724168

>  <compound_id>  (160) 
239

>  <target_id>  (160) 
1

>  <reference_id>  (160) 
168

>  <inspiration_ids>  (160) 
[199, 168]

>  <energy_score>  (160) 
-62.19589320167813

>  <distance_score>  (160) 
1.0065533130635536

>  <path>  (160) 
/opt/xchem-fragalysis-2/maxwin/BulkDock/SCRATCH/505737/C239-P168/C239-P168.minimised.mol

>  <scratch_subdir>  (160) 
/opt/xchem-fragalysis-2/maxwin/BulkDock/SCRATCH/505737/C239-P168

>  <fragmenstein_runtime>  (160) 
3.6879963874816895

>  <fragmenstein_outcome>  (160) 
too moved

>  <fragmenstein_mode>  (160) 
expansion

>  <fragmenstein_error>  (160) 


$$$$
C241-P190
     RDKit          2D

  0  0  0  0  0  0  0  0  0  0999 V2000
M  END
>  <compound_id>  (161) 
241

>  <target_id>  (161) 
1

>  <reference_id>  (161) 
190

>  <inspiration_ids>  (161) 
[199, 190]

>  <energy_score>  (161) 
nan

>  <distance_score>  (161) 
nan

>  <path>  (161) 
/opt/xchem-fragalysis-2/maxwin/BulkDock/SCRATCH/505737/C241-P190/C241-P190.minimised.mol

>  <scratch_subdir>  (161) 
/opt/xchem-fragalysis-2/maxwin/BulkDock/SCRATCH/505737/C241-P190

>  <fragmenstein_runtime>  (161) 
0.2847411632537842

>  <fragmenstein_outcome>  (161) 
too distant

>  <fragmenstein_mode>  (161) 
expansion

>  <fragmenstein_error>  (161) 
DistanceError: hit0+hit1

$$$$
C262-P200
     RDKit          3D

 59 60  0  0  0  0  0  0  0  0999 V2000
    2.9308   -1.7091   28.0411 C   0  0  0  0  0  0  0  0  0  0  0  0
    1.6527   -1.7089   28.8916 C   0  0  0  0  0  0  0  0  0  0  0  0
    0.6620   -0.8154   28.2788 N   0  0  0  0  0  0  0  0  0  0  0  0
   -0.6305   -0.7907   28.9630 C   0  0  0  0  0  0  0  0  0  0  0  0
   -1.3413    0.5745   28.8319 C   0  0  0  0  0  0  0  0  0  0  0  0
   -1.5540    1.0441   27.4037 C   0  0  0  0  0  0  0  0  0  0  0  0
   -1.2781    2.7724   27.0534 S   0  0  0  0  0  0  0  0  0  0  0  0
   -2.1314    3.5658   27.9008 O   0  0  0  0  0  0  0  0  0  0  0  0
   -1.3321    2.8962   25.6078 O   0  0  0  0  0  0  0  0  0  0  0  0
    0.3030    3.0041   27.5350 N   0  0  0  0  0  0  0  0  0  0  0  0
    1.4252    2.9693   26.5968 C   0  0  0  0  0  0  0  0  0  0  0  0
    2.5002    2.0479   27.1479 C   0  0  0  0  0  0  0  0  0  0  0  0
    2.8992    2.4286   28.5711 C   0  0  0  0  0  0  0  0  0  0  0  0
    3.7398    1.4200   29.1306 O   0  0  0  0  0  0  0  0  0  0  0  0
    1.6997    2.5939   29.4935 C   0  0  0  0  0  0  0  0  0  0  0  0
    0.6299    3.4859   28.8822 C   0  0  0  0  0  0  0  0  0  0  0  0
    1.1594   -3.0477   28.9065 O   0  0  0  0  0  0  0  0  0  0  0  0
    1.8358   -3.8844   29.7248 C   0  0  0  0  0  0  0  0  0  0  0  0
    2.6973   -3.6203   30.5427 O   0  0  0  0  0  0  0  0  0  0  0  0
    1.3785   -5.2433   29.4109 C   0  0  0  0  0  0  0  0  0  0  0  0
    0.6003   -5.9767   30.2182 C   0  0  0  0  0  0  0  0  0  0  0  0
    0.1544   -5.5702   31.5505 C   0  0  0  0  0  0  0  0  0  0  0  0
   -0.3981   -4.3195   31.8335 C   0  0  0  0  0  0  0  0  0  0  0  0
   -0.6504   -3.9514   33.1558 C   0  0  0  0  0  0  0  0  0  0  0  0
   -0.3771   -4.8367   34.2030 C   0  0  0  0  0  0  0  0  0  0  0  0
    0.1020   -6.1158   33.9193 C   0  0  0  0  0  0  0  0  0  0  0  0
    0.5047   -7.0888   34.9804 C   0  0  0  0  0  0  0  0  0  0  0  0
   -0.4310   -7.2214   36.0695 N   0  0  0  0  0  0  0  0  0  0  0  0
    1.5667   -7.6169   34.7918 O   0  0  0  0  0  0  0  0  0  0  0  0
    0.3472   -6.4771   32.5921 C   0  0  0  0  0  0  0  0  0  0  0  0
    3.7098   -2.3313   28.4934 H   0  0  0  0  0  0  0  0  0  0  0  0
    2.7388   -2.1293   27.0466 H   0  0  0  0  0  0  0  0  0  0  0  0
    3.3450   -0.7100   27.9150 H   0  0  0  0  0  0  0  0  0  0  0  0
    1.8762   -1.3536   29.9054 H   0  0  0  0  0  0  0  0  0  0  0  0
    0.5325   -1.1472   27.3207 H   0  0  0  0  0  0  0  0  0  0  0  0
   -0.5037   -0.9873   30.0349 H   0  0  0  0  0  0  0  0  0  0  0  0
   -1.2743   -1.5846   28.5662 H   0  0  0  0  0  0  0  0  0  0  0  0
   -2.3132    0.5000   29.3313 H   0  0  0  0  0  0  0  0  0  0  0  0
   -0.7874    1.3057   29.4149 H   0  0  0  0  0  0  0  0  0  0  0  0
   -0.8721    0.5314   26.7367 H   0  0  0  0  0  0  0  0  0  0  0  0
   -2.5737    0.8203   27.0747 H   0  0  0  0  0  0  0  0  0  0  0  0
    1.8180    3.9846   26.4677 H   0  0  0  0  0  0  0  0  0  0  0  0
    1.1230    2.6209   25.6075 H   0  0  0  0  0  0  0  0  0  0  0  0
    2.1397    1.0180   27.1269 H   0  0  0  0  0  0  0  0  0  0  0  0
    3.3829    2.0636   26.4975 H   0  0  0  0  0  0  0  0  0  0  0  0
    3.4703    3.3647   28.5520 H   0  0  0  0  0  0  0  0  0  0  0  0
    4.4923    1.2970   28.5266 H   0  0  0  0  0  0  0  0  0  0  0  0
    2.0273    3.0101   30.4542 H   0  0  0  0  0  0  0  0  0  0  0  0
    1.2967    1.6058   29.7358 H   0  0  0  0  0  0  0  0  0  0  0  0
   -0.2406    3.4877   29.5389 H   0  0  0  0  0  0  0  0  0  0  0  0
    0.9834    4.5215   28.8163 H   0  0  0  0  0  0  0  0  0  0  0  0
    1.7241   -5.6068   28.4533 H   0  0  0  0  0  0  0  0  0  0  0  0
    0.3276   -6.9870   29.9287 H   0  0  0  0  0  0  0  0  0  0  0  0
   -0.5926   -3.5992   31.0425 H   0  0  0  0  0  0  0  0  0  0  0  0
   -1.0332   -2.9577   33.3789 H   0  0  0  0  0  0  0  0  0  0  0  0
   -0.5106   -4.4934   35.2253 H   0  0  0  0  0  0  0  0  0  0  0  0
   -1.1885   -6.5224   35.9516 H   0  0  0  0  0  0  0  0  0  0  0  0
   -1.2981   -6.6992   35.8363 H   0  0  0  0  0  0  0  0  0  0  0  0
    0.7531   -7.4592   32.3857 H   0  0  0  0  0  0  0  0  0  0  0  0
  1  2  1  0
  2  3  1  0
  3  4  1  0
  4  5  1  0
  5  6  1  0
  6  7  1  0
  7  8  2  0
  7  9  2  0
  7 10  1  0
 10 11  1  0
 11 12  1  0
 12 13  1  0
 13 14  1  0
 13 15  1  0
 15 16  1  0
  2 17  1  0
 17 18  1  0
 18 19  2  0
 18 20  1  0
 20 21  2  3
 21 22  1  0
 22 23  2  0
 23 24  1  0
 24 25  2  0
 25 26  1  0
 26 27  1  0
 27 28  1  0
 27 29  2  0
 26 30  2  0
 16 10  1  0
 30 22  1  0
  1 31  1  0
  1 32  1  0
  1 33  1  0
  2 34  1  0
  3 35  1  0
  4 36  1  0
  4 37  1  0
  5 38  1  0
  5 39  1  0
  6 40  1  0
  6 41  1  0
 11 42  1  0
 11 43  1  0
 12 44  1  0
 12 45  1  0
 13 46  1  0
 14 47  1  0
 15 48  1  0
 15 49  1  0
 16 50  1  0
 16 51  1  0
 20 52  1  0
 21 53  1  0
 23 54  1  0
 24 55  1  0
 25 56  1  0
 28 57  1  0
 28 58  1  0
 30 59  1  0
M  END
>  <Energy>  (162) 
104.06277355162837

>  <compound_id>  (162) 
262

>  <target_id>  (162) 
1

>  <reference_id>  (162) 
200

>  <inspiration_ids>  (162) 
[200, 13]

>  <energy_score>  (162) 
92.00718103482262

>  <distance_score>  (162) 
3.3911063228914946

>  <path>  (162) 
/opt/xchem-fragalysis-2/maxwin/BulkDock/SCRATCH/505737/C262-P200/C262-P200.minimised.mol

>  <scratch_subdir>  (162) 
/opt/xchem-fragalysis-2/maxwin/BulkDock/SCRATCH/505737/C262-P200

>  <fragmenstein_runtime>  (162) 
14.739869832992554

>  <fragmenstein_outcome>  (162) 
too moved

>  <fragmenstein_mode>  (162) 
expansion

>  <fragmenstein_error>  (162) 


$$$$
C262-P13
     RDKit          3D

 59 60  0  0  0  0  0  0  0  0999 V2000
   -0.0274   -1.1351   31.4181 C   0  0  0  0  0  0  0  0  0  0  0  0
   -0.1227   -1.8278   30.0589 C   0  0  0  0  0  0  0  0  0  0  0  0
   -0.3741   -0.9308   28.9338 N   0  0  0  0  0  0  0  0  0  0  0  0
   -1.4122    0.0653   29.1550 C   0  0  0  0  0  0  0  0  0  0  0  0
   -1.7680    0.8422   27.8828 C   0  0  0  0  0  0  0  0  0  0  0  0
   -0.5940    1.4287   27.1186 C   0  0  0  0  0  0  0  0  0  0  0  0
    0.2565    2.8166   27.8678 S   0  0  0  0  0  0  0  0  0  0  0  0
   -0.2811    3.0801   29.1822 O   0  0  0  0  0  0  0  0  0  0  0  0
    0.3485    3.8613   26.8688 O   0  0  0  0  0  0  0  0  0  0  0  0
    1.8290    2.2445   28.1074 N   0  0  0  0  0  0  0  0  0  0  0  0
    2.6719    1.9399   26.9342 C   0  0  0  0  0  0  0  0  0  0  0  0
    3.0880    0.4755   26.9469 C   0  0  0  0  0  0  0  0  0  0  0  0
    3.9018    0.1404   28.1923 C   0  0  0  0  0  0  0  0  0  0  0  0
    3.7227   -1.2464   28.4917 O   0  0  0  0  0  0  0  0  0  0  0  0
    3.5235    1.0008   29.3966 C   0  0  0  0  0  0  0  0  0  0  0  0
    2.0723    1.4420   29.3192 C   0  0  0  0  0  0  0  0  0  0  0  0
    1.1539   -2.4681   29.9333 O   0  0  0  0  0  0  0  0  0  0  0  0
    1.2502   -3.3903   28.9601 C   0  0  0  0  0  0  0  0  0  0  0  0
    0.4346   -3.6480   28.0965 O   0  0  0  0  0  0  0  0  0  0  0  0
    2.5309   -4.0991   29.0907 C   0  0  0  0  0  0  0  0  0  0  0  0
    2.7747   -4.9556   30.0938 C   0  0  0  0  0  0  0  0  0  0  0  0
    1.7987   -5.2937   31.1331 C   0  0  0  0  0  0  0  0  0  0  0  0
    1.7170   -4.5619   32.3170 C   0  0  0  0  0  0  0  0  0  0  0  0
    0.6983   -4.8241   33.2393 C   0  0  0  0  0  0  0  0  0  0  0  0
   -0.2435   -5.8272   32.9935 C   0  0  0  0  0  0  0  0  0  0  0  0
   -0.1409   -6.5955   31.8315 C   0  0  0  0  0  0  0  0  0  0  0  0
   -1.1407   -7.6337   31.4321 C   0  0  0  0  0  0  0  0  0  0  0  0
   -1.6717   -8.4342   32.4927 N   0  0  0  0  0  0  0  0  0  0  0  0
   -1.3884   -7.6273   30.2614 O   0  0  0  0  0  0  0  0  0  0  0  0
    0.8754   -6.3132   30.9073 C   0  0  0  0  0  0  0  0  0  0  0  0
    0.2537   -1.8537   32.1956 H   0  0  0  0  0  0  0  0  0  0  0  0
    0.7482   -0.3617   31.4225 H   0  0  0  0  0  0  0  0  0  0  0  0
   -0.9780   -0.6838   31.7186 H   0  0  0  0  0  0  0  0  0  0  0  0
   -0.9092   -2.5919   30.1193 H   0  0  0  0  0  0  0  0  0  0  0  0
   -0.6068   -1.5196   28.1235 H   0  0  0  0  0  0  0  0  0  0  0  0
   -2.3214   -0.4145   29.5330 H   0  0  0  0  0  0  0  0  0  0  0  0
   -1.0731    0.7701   29.9162 H   0  0  0  0  0  0  0  0  0  0  0  0
   -2.2962    0.1589   27.2054 H   0  0  0  0  0  0  0  0  0  0  0  0
   -2.4742    1.6403   28.1343 H   0  0  0  0  0  0  0  0  0  0  0  0
    0.1407    0.6593   26.8918 H   0  0  0  0  0  0  0  0  0  0  0  0
   -0.9647    1.8115   26.1615 H   0  0  0  0  0  0  0  0  0  0  0  0
    3.5544    2.5898   26.9653 H   0  0  0  0  0  0  0  0  0  0  0  0
    2.1518    2.1754   26.0024 H   0  0  0  0  0  0  0  0  0  0  0  0
    2.2056   -0.1714   26.9029 H   0  0  0  0  0  0  0  0  0  0  0  0
    3.6764    0.2415   26.0518 H   0  0  0  0  0  0  0  0  0  0  0  0
    4.9690    0.2784   27.9828 H   0  0  0  0  0  0  0  0  0  0  0  0
    4.1922   -1.4209   29.3252 H   0  0  0  0  0  0  0  0  0  0  0  0
    3.6955    0.4629   30.3357 H   0  0  0  0  0  0  0  0  0  0  0  0
    4.1610    1.8943   29.4120 H   0  0  0  0  0  0  0  0  0  0  0  0
    1.4393    0.5640   29.3231 H   0  0  0  0  0  0  0  0  0  0  0  0
    1.8439    2.0415   30.2068 H   0  0  0  0  0  0  0  0  0  0  0  0
    3.2524   -3.8960   28.3096 H   0  0  0  0  0  0  0  0  0  0  0  0
    3.7409   -5.4422   30.1507 H   0  0  0  0  0  0  0  0  0  0  0  0
    2.4132   -3.7474   32.5100 H   0  0  0  0  0  0  0  0  0  0  0  0
    0.6161   -4.2130   34.1370 H   0  0  0  0  0  0  0  0  0  0  0  0
   -1.0685   -5.9410   33.6924 H   0  0  0  0  0  0  0  0  0  0  0  0
   -1.3063   -8.0823   33.3969 H   0  0  0  0  0  0  0  0  0  0  0  0
   -1.1352   -8.2437   33.3616 H   0  0  0  0  0  0  0  0  0  0  0  0
    0.9203   -6.8804   29.9834 H   0  0  0  0  0  0  0  0  0  0  0  0
  1  2  1  0
  2  3  1  0
  3  4  1  0
  4  5  1  0
  5  6  1  0
  6  7  1  0
  7  8  2  0
  7  9  2  0
  7 10  1  0
 10 11  1  0
 11 12  1  0
 12 13  1  0
 13 14  1  0
 13 15  1  0
 15 16  1  0
  2 17  1  0
 17 18  1  0
 18 19  2  0
 18 20  1  0
 20 21  2  3
 21 22  1  0
 22 23  2  0
 23 24  1  0
 24 25  2  0
 25 26  1  0
 26 27  1  0
 27 28  1  0
 27 29  2  0
 26 30  2  0
 16 10  1  0
 30 22  1  0
  1 31  1  0
  1 32  1  0
  1 33  1  0
  2 34  1  0
  3 35  1  0
  4 36  1  0
  4 37  1  0
  5 38  1  0
  5 39  1  0
  6 40  1  0
  6 41  1  0
 11 42  1  0
 11 43  1  0
 12 44  1  0
 12 45  1  0
 13 46  1  0
 14 47  1  0
 15 48  1  0
 15 49  1  0
 16 50  1  0
 16 51  1  0
 20 52  1  0
 21 53  1  0
 23 54  1  0
 24 55  1  0
 25 56  1  0
 28 57  1  0
 28 58  1  0
 30 59  1  0
M  END
>  <Energy>  (163) 
102.11823484002467

>  <compound_id>  (163) 
262

>  <target_id>  (163) 
1

>  <reference_id>  (163) 
13

>  <inspiration_ids>  (163) 
[200, 13]

>  <energy_score>  (163) 
90.06264232322457

>  <distance_score>  (163) 
3.355214712732513

>  <path>  (163) 
/opt/xchem-fragalysis-2/maxwin/BulkDock/SCRATCH/505737/C262-P13/C262-P13.minimised.mol

>  <scratch_subdir>  (163) 
/opt/xchem-fragalysis-2/maxwin/BulkDock/SCRATCH/505737/C262-P13

>  <fragmenstein_runtime>  (163) 
12.418812990188599

>  <fragmenstein_outcome>  (163) 
too moved

>  <fragmenstein_mode>  (163) 
expansion

>  <fragmenstein_error>  (163) 


$$$$
C263-P200
     RDKit          3D

 60 62  0  0  0  0  0  0  0  0999 V2000
    6.1853   -3.4860   29.5200 C   0  0  0  0  0  0  0  0  0  0  0  0
    5.2932   -4.6560   29.8705 C   0  0  0  0  0  0  0  0  0  0  0  0
    3.9872   -4.3321   29.3914 O   0  0  0  0  0  0  0  0  0  0  0  0
    3.2773   -5.3166   28.8035 C   0  0  0  0  0  0  0  0  0  0  0  0
    3.5339   -6.5067   28.7328 O   0  0  0  0  0  0  0  0  0  0  0  0
    2.1413   -4.6696   28.1476 C   0  0  0  0  0  0  0  0  0  0  0  0
    0.9308   -4.4707   28.6853 C   0  0  0  0  0  0  0  0  0  0  0  0
    0.3208   -4.8247   30.0161 C   0  0  0  0  0  0  0  0  0  0  0  0
    0.2026   -6.3154   30.3418 C   0  0  0  0  0  0  0  0  0  0  0  0
   -0.5578   -6.5928   31.6369 C   0  0  0  0  0  0  0  0  0  0  0  0
   -0.6828   -5.3673   32.5348 C   0  0  0  0  0  0  0  0  0  0  0  0
    0.6159   -4.5396   32.5789 C   0  0  0  0  0  0  0  0  0  0  0  0
    0.9144   -3.9847   31.1580 C   0  0  0  0  0  0  0  0  0  0  0  0
    1.8211   -5.3752   33.0529 C   0  0  0  0  0  0  0  0  0  0  0  0
    1.6697   -5.8431   34.5037 C   0  0  0  0  0  0  0  0  0  0  0  0
    2.8243   -6.7909   34.8634 C   0  0  0  0  0  0  0  0  0  0  0  0
    2.6519   -7.9498   34.9158 O   0  0  0  0  0  0  0  0  0  0  0  0
    4.1358   -5.9555   35.0088 N   0  0  0  0  0  0  0  0  0  0  0  0
    5.4450   -6.3583   35.3330 C   0  0  0  0  0  0  0  0  0  0  0  0
    6.3796   -5.3079   35.2540 C   0  0  0  0  0  0  0  0  0  0  0  0
    7.7319   -5.5238   35.4910 C   0  0  0  0  0  0  0  0  0  0  0  0
    8.5897   -4.5005   35.3885 F   0  0  0  0  0  0  0  0  0  0  0  0
    8.1994   -6.7801   35.8189 C   0  0  0  0  0  0  0  0  0  0  0  0
    7.2889   -7.8276   35.9244 C   0  0  0  0  0  0  0  0  0  0  0  0
    5.9035   -7.6360   35.7009 C   0  0  0  0  0  0  0  0  0  0  0  0
    5.0362   -8.8406   35.9160 C   0  0  0  0  0  0  0  0  0  0  0  0
    1.4443   -4.6450   35.4286 C   0  0  0  0  0  0  0  0  0  0  0  0
    0.3053   -3.7641   34.9104 C   0  0  0  0  0  0  0  0  0  0  0  0
    0.4750   -3.3936   33.5010 N   0  0  0  0  0  0  0  0  0  0  0  0
    7.2037   -3.6499   29.8835 H   0  0  0  0  0  0  0  0  0  0  0  0
    6.2187   -3.3365   28.4355 H   0  0  0  0  0  0  0  0  0  0  0  0
    5.8007   -2.5586   29.9575 H   0  0  0  0  0  0  0  0  0  0  0  0
    5.2436   -4.7665   30.9574 H   0  0  0  0  0  0  0  0  0  0  0  0
    5.6852   -5.5770   29.4263 H   0  0  0  0  0  0  0  0  0  0  0  0
    2.3623   -4.2857   27.1553 H   0  0  0  0  0  0  0  0  0  0  0  0
    0.2441   -3.8965   28.0562 H   0  0  0  0  0  0  0  0  0  0  0  0
   -0.7150   -4.4706   29.9240 H   0  0  0  0  0  0  0  0  0  0  0  0
   -0.3302   -6.8520   29.5602 H   0  0  0  0  0  0  0  0  0  0  0  0
    1.1958   -6.7578   30.3935 H   0  0  0  0  0  0  0  0  0  0  0  0
   -1.5611   -6.9667   31.4042 H   0  0  0  0  0  0  0  0  0  0  0  0
   -0.0650   -7.4106   32.1762 H   0  0  0  0  0  0  0  0  0  0  0  0
   -1.4879   -4.7244   32.1615 H   0  0  0  0  0  0  0  0  0  0  0  0
   -1.0106   -5.7104   33.5205 H   0  0  0  0  0  0  0  0  0  0  0  0
    0.4920   -2.9729   31.0597 H   0  0  0  0  0  0  0  0  0  0  0  0
    1.9948   -3.8463   31.0348 H   0  0  0  0  0  0  0  0  0  0  0  0
    1.9957   -6.2405   32.4083 H   0  0  0  0  0  0  0  0  0  0  0  0
    2.7380   -4.7741   32.9671 H   0  0  0  0  0  0  0  0  0  0  0  0
    0.7729   -6.4737   34.5784 H   0  0  0  0  0  0  0  0  0  0  0  0
    3.9128   -4.9710   34.9914 H   0  0  0  0  0  0  0  0  0  0  0  0
    6.0760   -4.3002   34.9849 H   0  0  0  0  0  0  0  0  0  0  0  0
    9.2575   -6.9390   35.9985 H   0  0  0  0  0  0  0  0  0  0  0  0
    7.6670   -8.8120   36.2000 H   0  0  0  0  0  0  0  0  0  0  0  0
    4.6679   -9.2238   34.9615 H   0  0  0  0  0  0  0  0  0  0  0  0
    5.5925   -9.6599   36.3868 H   0  0  0  0  0  0  0  0  0  0  0  0
    4.2206   -8.6054   36.6052 H   0  0  0  0  0  0  0  0  0  0  0  0
    2.3381   -4.0193   35.5154 H   0  0  0  0  0  0  0  0  0  0  0  0
    1.2157   -4.9942   36.4424 H   0  0  0  0  0  0  0  0  0  0  0  0
   -0.6597   -4.2564   35.0685 H   0  0  0  0  0  0  0  0  0  0  0  0
    0.2655   -2.8451   35.5067 H   0  0  0  0  0  0  0  0  0  0  0  0
    1.2759   -2.7687   33.4072 H   0  0  0  0  0  0  0  0  0  0  0  0
  1  2  1  0
  2  3  1  0
  3  4  1  0
  4  5  2  0
  4  6  1  0
  6  7  2  3
  7  8  1  0
  8  9  1  0
  9 10  1  0
 10 11  1  0
 11 12  1  0
 12 13  1  0
 12 14  1  0
 14 15  1  0
 15 16  1  0
 16 17  2  0
 16 18  1  0
 18 19  1  0
 19 20  2  0
 20 21  1  0
 21 22  1  0
 21 23  2  0
 23 24  1  0
 24 25  2  0
 25 26  1  0
 15 27  1  0
 27 28  1  0
 28 29  1  0
 13  8  1  0
 25 19  1  0
 29 12  1  0
  1 30  1  0
  1 31  1  0
  1 32  1  0
  2 33  1  0
  2 34  1  0
  6 35  1  0
  7 36  1  0
  8 37  1  0
  9 38  1  0
  9 39  1  0
 10 40  1  0
 10 41  1  0
 11 42  1  0
 11 43  1  0
 13 44  1  0
 13 45  1  0
 14 46  1  0
 14 47  1  0
 15 48  1  0
 18 49  1  0
 20 50  1  0
 23 51  1  0
 24 52  1  0
 26 53  1  0
 26 54  1  0
 26 55  1  0
 27 56  1  0
 27 57  1  0
 28 58  1  0
 28 59  1  0
 29 60  1  0
M  END
>  <Energy>  (164) 
48.970287909737806

>  <compound_id>  (164) 
263

>  <target_id>  (164) 
1

>  <reference_id>  (164) 
200

>  <inspiration_ids>  (164) 
[200, 25]

>  <energy_score>  (164) 
-63.34987308815312

>  <distance_score>  (164) 
3.4361444979172924

>  <path>  (164) 
/opt/xchem-fragalysis-2/maxwin/BulkDock/SCRATCH/505737/C263-P200/C263-P200.minimised.mol

>  <scratch_subdir>  (164) 
/opt/xchem-fragalysis-2/maxwin/BulkDock/SCRATCH/505737/C263-P200

>  <fragmenstein_runtime>  (164) 
6.654032230377197

>  <fragmenstein_outcome>  (164) 
too moved

>  <fragmenstein_mode>  (164) 
expansion

>  <fragmenstein_error>  (164) 


$$$$
C263-P25
     RDKit          3D

 60 62  0  0  0  0  0  0  0  0999 V2000
    6.2137   -4.1409   29.3070 C   0  0  0  0  0  0  0  0  0  0  0  0
    5.4760   -4.7520   28.1274 C   0  0  0  0  0  0  0  0  0  0  0  0
    4.0692   -4.7517   28.4007 O   0  0  0  0  0  0  0  0  0  0  0  0
    3.4740   -3.5469   28.2430 C   0  0  0  0  0  0  0  0  0  0  0  0
    3.9772   -2.5420   27.7663 O   0  0  0  0  0  0  0  0  0  0  0  0
    2.1206   -3.5362   28.8273 C   0  0  0  0  0  0  0  0  0  0  0  0
    1.4361   -4.6114   29.2551 C   0  0  0  0  0  0  0  0  0  0  0  0
    0.0836   -4.5732   29.9401 C   0  0  0  0  0  0  0  0  0  0  0  0
   -0.0296   -5.4992   31.1628 C   0  0  0  0  0  0  0  0  0  0  0  0
    0.8866   -5.0944   32.3149 C   0  0  0  0  0  0  0  0  0  0  0  0
    1.2223   -3.6039   32.3081 C   0  0  0  0  0  0  0  0  0  0  0  0
    0.0589   -2.7258   31.7916 C   0  0  0  0  0  0  0  0  0  0  0  0
   -0.4330   -3.1913   30.3830 C   0  0  0  0  0  0  0  0  0  0  0  0
   -1.1261   -2.7750   32.8121 C   0  0  0  0  0  0  0  0  0  0  0  0
   -0.8871   -1.8307   34.0054 C   0  0  0  0  0  0  0  0  0  0  0  0
   -1.9751   -1.8982   35.0914 C   0  0  0  0  0  0  0  0  0  0  0  0
   -1.7288   -2.2698   36.1751 O   0  0  0  0  0  0  0  0  0  0  0  0
   -3.3123   -1.3636   34.4839 N   0  0  0  0  0  0  0  0  0  0  0  0
   -4.5490   -1.0983   35.0941 C   0  0  0  0  0  0  0  0  0  0  0  0
   -5.6070   -0.9054   34.1888 C   0  0  0  0  0  0  0  0  0  0  0  0
   -6.8972   -0.6539   34.6409 C   0  0  0  0  0  0  0  0  0  0  0  0
   -7.8865   -0.4806   33.7562 F   0  0  0  0  0  0  0  0  0  0  0  0
   -7.1761   -0.5813   35.9923 C   0  0  0  0  0  0  0  0  0  0  0  0
   -6.1365   -0.7411   36.9027 C   0  0  0  0  0  0  0  0  0  0  0  0
   -4.8098   -0.9799   36.4732 C   0  0  0  0  0  0  0  0  0  0  0  0
   -3.7697   -1.0434   37.5552 C   0  0  0  0  0  0  0  0  0  0  0  0
   -0.6235   -0.3871   33.5447 C   0  0  0  0  0  0  0  0  0  0  0  0
   -0.3165   -0.3037   32.0531 C   0  0  0  0  0  0  0  0  0  0  0  0
    0.6126   -1.3591   31.6902 N   0  0  0  0  0  0  0  0  0  0  0  0
    7.2954   -4.2106   29.1603 H   0  0  0  0  0  0  0  0  0  0  0  0
    5.9535   -3.0872   29.4458 H   0  0  0  0  0  0  0  0  0  0  0  0
    5.9502   -4.6594   30.2350 H   0  0  0  0  0  0  0  0  0  0  0  0
    5.6998   -4.2316   27.1890 H   0  0  0  0  0  0  0  0  0  0  0  0
    5.7795   -5.7964   28.0020 H   0  0  0  0  0  0  0  0  0  0  0  0
    1.7282   -2.5295   28.8988 H   0  0  0  0  0  0  0  0  0  0  0  0
    1.8649   -5.5927   29.0896 H   0  0  0  0  0  0  0  0  0  0  0  0
   -0.6170   -4.9205   29.1818 H   0  0  0  0  0  0  0  0  0  0  0  0
    0.0859   -6.5473   30.9049 H   0  0  0  0  0  0  0  0  0  0  0  0
   -1.0545   -5.4475   31.5456 H   0  0  0  0  0  0  0  0  0  0  0  0
    0.4098   -5.3699   33.2636 H   0  0  0  0  0  0  0  0  0  0  0  0
    1.8184   -5.6589   32.2868 H   0  0  0  0  0  0  0  0  0  0  0  0
    1.5338   -3.3078   33.3174 H   0  0  0  0  0  0  0  0  0  0  0  0
    2.1141   -3.4496   31.6869 H   0  0  0  0  0  0  0  0  0  0  0  0
   -1.5305   -3.2381   30.3925 H   0  0  0  0  0  0  0  0  0  0  0  0
   -0.2411   -2.4384   29.6096 H   0  0  0  0  0  0  0  0  0  0  0  0
   -2.0608   -2.4894   32.3144 H   0  0  0  0  0  0  0  0  0  0  0  0
   -1.2899   -3.7896   33.1845 H   0  0  0  0  0  0  0  0  0  0  0  0
    0.0255   -2.1749   34.5126 H   0  0  0  0  0  0  0  0  0  0  0  0
   -3.1945   -1.2066   33.4924 H   0  0  0  0  0  0  0  0  0  0  0  0
   -5.4498   -0.9600   33.1151 H   0  0  0  0  0  0  0  0  0  0  0  0
   -8.1880   -0.3796   36.3274 H   0  0  0  0  0  0  0  0  0  0  0  0
   -6.3580   -0.6519   37.9657 H   0  0  0  0  0  0  0  0  0  0  0  0
   -2.8944   -0.4441   37.2900 H   0  0  0  0  0  0  0  0  0  0  0  0
   -3.5014   -2.0810   37.7678 H   0  0  0  0  0  0  0  0  0  0  0  0
   -4.1448   -0.6137   38.4918 H   0  0  0  0  0  0  0  0  0  0  0  0
   -1.4544    0.2882   33.7765 H   0  0  0  0  0  0  0  0  0  0  0  0
    0.2330    0.0018   34.1124 H   0  0  0  0  0  0  0  0  0  0  0  0
   -1.2321   -0.3652   31.4532 H   0  0  0  0  0  0  0  0  0  0  0  0
    0.1355    0.6709   31.8381 H   0  0  0  0  0  0  0  0  0  0  0  0
    1.0098   -1.1863   30.7672 H   0  0  0  0  0  0  0  0  0  0  0  0
  1  2  1  0
  2  3  1  0
  3  4  1  0
  4  5  2  0
  4  6  1  0
  6  7  2  3
  7  8  1  0
  8  9  1  0
  9 10  1  0
 10 11  1  0
 11 12  1  0
 12 13  1  0
 12 14  1  0
 14 15  1  0
 15 16  1  0
 16 17  2  0
 16 18  1  0
 18 19  1  0
 19 20  2  0
 20 21  1  0
 21 22  1  0
 21 23  2  0
 23 24  1  0
 24 25  2  0
 25 26  1  0
 15 27  1  0
 27 28  1  0
 28 29  1  0
 13  8  1  0
 25 19  1  0
 29 12  1  0
  1 30  1  0
  1 31  1  0
  1 32  1  0
  2 33  1  0
  2 34  1  0
  6 35  1  0
  7 36  1  0
  8 37  1  0
  9 38  1  0
  9 39  1  0
 10 40  1  0
 10 41  1  0
 11 42  1  0
 11 43  1  0
 13 44  1  0
 13 45  1  0
 14 46  1  0
 14 47  1  0
 15 48  1  0
 18 49  1  0
 20 50  1  0
 23 51  1  0
 24 52  1  0
 26 53  1  0
 26 54  1  0
 26 55  1  0
 27 56  1  0
 27 57  1  0
 28 58  1  0
 28 59  1  0
 29 60  1  0
M  END
>  <Energy>  (165) 
46.361558691225262

>  <compound_id>  (165) 
263

>  <target_id>  (165) 
1

>  <reference_id>  (165) 
25

>  <inspiration_ids>  (165) 
[200, 25]

>  <energy_score>  (165) 
-65.95860230666534

>  <distance_score>  (165) 
4.35239957034522

>  <path>  (165) 
/opt/xchem-fragalysis-2/maxwin/BulkDock/SCRATCH/505737/C263-P25/C263-P25.minimised.mol

>  <scratch_subdir>  (165) 
/opt/xchem-fragalysis-2/maxwin/BulkDock/SCRATCH/505737/C263-P25

>  <fragmenstein_runtime>  (165) 
8.503469944000244

>  <fragmenstein_outcome>  (165) 
too moved

>  <fragmenstein_mode>  (165) 
expansion

>  <fragmenstein_error>  (165) 


$$$$
C265-P200
     RDKit          3D

 43 45  0  0  0  0  0  0  0  0999 V2000
    5.4516   -2.6816   29.5048 C   0  0  0  0  0  0  0  0  0  0  0  0
    4.7898   -2.5290   28.1463 C   0  0  0  0  0  0  0  0  0  0  0  0
    4.2446   -3.7959   27.7661 O   0  0  0  0  0  0  0  0  0  0  0  0
    3.0099   -4.0568   28.2592 C   0  0  0  0  0  0  0  0  0  0  0  0
    2.2490   -3.2796   28.8077 O   0  0  0  0  0  0  0  0  0  0  0  0
    2.7974   -5.5124   28.0941 C   0  0  0  0  0  0  0  0  0  0  0  0
    1.9504   -6.2437   28.8386 C   0  0  0  0  0  0  0  0  0  0  0  0
    0.9977   -5.7417   29.9038 C   0  0  0  0  0  0  0  0  0  0  0  0
   -0.0364   -6.8080   30.3472 C   0  0  0  0  0  0  0  0  0  0  0  0
   -0.6408   -6.5243   31.7267 C   0  0  0  0  0  0  0  0  0  0  0  0
   -0.6527   -5.0251   32.0415 C   0  0  0  0  0  0  0  0  0  0  0  0
    0.7716   -4.4352   32.0511 C   0  0  0  0  0  0  0  0  0  0  0  0
    1.7299   -5.2466   31.1512 C   0  0  0  0  0  0  0  0  0  0  0  0
    0.7391   -3.0052   31.5894 N   0  0  0  0  0  0  0  0  0  0  0  0
    1.6938   -2.3052   32.4173 N   0  0  0  0  0  0  0  0  0  0  0  0
    1.8944   -3.0708   33.5789 C   0  0  0  0  0  0  0  0  0  0  0  0
    2.6012   -2.7109   34.7083 C   0  0  0  0  0  0  0  0  0  0  0  0
    2.6806   -3.6357   35.7472 C   0  0  0  0  0  0  0  0  0  0  0  0
    2.0579   -4.8888   35.6408 C   0  0  0  0  0  0  0  0  0  0  0  0
    1.3890   -5.2600   34.4757 C   0  0  0  0  0  0  0  0  0  0  0  0
    1.3459   -4.3456   33.4390 C   0  0  0  0  0  0  0  0  0  0  0  0
    4.7188   -2.9483   30.2734 H   0  0  0  0  0  0  0  0  0  0  0  0
    5.9422   -1.7504   29.8018 H   0  0  0  0  0  0  0  0  0  0  0  0
    6.1979   -3.4827   29.4835 H   0  0  0  0  0  0  0  0  0  0  0  0
    5.5383   -2.2570   27.3952 H   0  0  0  0  0  0  0  0  0  0  0  0
    4.0282   -1.7411   28.1507 H   0  0  0  0  0  0  0  0  0  0  0  0
    3.4156   -5.9840   27.3366 H   0  0  0  0  0  0  0  0  0  0  0  0
    1.9070   -7.3040   28.6203 H   0  0  0  0  0  0  0  0  0  0  0  0
    0.4264   -4.9149   29.4610 H   0  0  0  0  0  0  0  0  0  0  0  0
    0.3992   -7.8133   30.3545 H   0  0  0  0  0  0  0  0  0  0  0  0
   -0.8556   -6.8448   29.6242 H   0  0  0  0  0  0  0  0  0  0  0  0
   -1.6527   -6.9378   31.7723 H   0  0  0  0  0  0  0  0  0  0  0  0
   -0.0652   -7.0617   32.4885 H   0  0  0  0  0  0  0  0  0  0  0  0
   -1.2577   -4.5202   31.2791 H   0  0  0  0  0  0  0  0  0  0  0  0
   -1.1621   -4.8491   32.9957 H   0  0  0  0  0  0  0  0  0  0  0  0
    2.1166   -6.1106   31.7074 H   0  0  0  0  0  0  0  0  0  0  0  0
    2.6251   -4.6598   30.9127 H   0  0  0  0  0  0  0  0  0  0  0  0
    1.0556   -2.9519   30.6093 H   0  0  0  0  0  0  0  0  0  0  0  0
    1.4436   -1.3401   32.6418 H   0  0  0  0  0  0  0  0  0  0  0  0
    3.0673   -1.7362   34.7925 H   0  0  0  0  0  0  0  0  0  0  0  0
    3.2119   -3.3757   36.6598 H   0  0  0  0  0  0  0  0  0  0  0  0
    2.1110   -5.5823   36.4773 H   0  0  0  0  0  0  0  0  0  0  0  0
    0.9269   -6.2361   34.3986 H   0  0  0  0  0  0  0  0  0  0  0  0
  1  2  1  0
  2  3  1  0
  3  4  1  0
  4  5  2  0
  4  6  1  0
  6  7  2  3
  7  8  1  0
  8  9  1  0
  9 10  1  0
 10 11  1  0
 11 12  1  0
 12 13  1  0
 12 14  1  0
 14 15  1  0
 15 16  1  0
 16 17  2  0
 17 18  1  0
 18 19  2  0
 19 20  1  0
 20 21  2  0
 13  8  1  0
 21 16  1  0
 21 12  1  0
  1 22  1  0
  1 23  1  0
  1 24  1  0
  2 25  1  0
  2 26  1  0
  6 27  1  0
  7 28  1  0
  8 29  1  0
  9 30  1  0
  9 31  1  0
 10 32  1  0
 10 33  1  0
 11 34  1  0
 11 35  1  0
 13 36  1  0
 13 37  1  0
 14 38  1  0
 15 39  1  0
 17 40  1  0
 18 41  1  0
 19 42  1  0
 20 43  1  0
M  END
>  <Energy>  (166) 
69.900850216354428

>  <compound_id>  (166) 
265

>  <target_id>  (166) 
1

>  <reference_id>  (166) 
200

>  <inspiration_ids>  (166) 
[200, 41]

>  <energy_score>  (166) 
-50.3721813027438

>  <distance_score>  (166) 
1.6342525234611318

>  <path>  (166) 
/opt/xchem-fragalysis-2/maxwin/BulkDock/SCRATCH/505737/C265-P200/C265-P200.minimised.mol

>  <scratch_subdir>  (166) 
/opt/xchem-fragalysis-2/maxwin/BulkDock/SCRATCH/505737/C265-P200

>  <fragmenstein_runtime>  (166) 
6.399728298187256

>  <fragmenstein_outcome>  (166) 
too moved

>  <fragmenstein_mode>  (166) 
expansion

>  <fragmenstein_error>  (166) 


$$$$
C265-P41
     RDKit          3D

 43 45  0  0  0  0  0  0  0  0999 V2000
    5.9523   -3.6459   29.0716 C   0  0  0  0  0  0  0  0  0  0  0  0
    5.5108   -3.9782   27.6556 C   0  0  0  0  0  0  0  0  0  0  0  0
    5.2711   -5.3946   27.5055 O   0  0  0  0  0  0  0  0  0  0  0  0
    4.1430   -6.0413   27.8647 C   0  0  0  0  0  0  0  0  0  0  0  0
    3.9875   -7.2432   27.6522 O   0  0  0  0  0  0  0  0  0  0  0  0
    3.1170   -5.2772   28.6029 C   0  0  0  0  0  0  0  0  0  0  0  0
    2.0933   -5.9591   29.1398 C   0  0  0  0  0  0  0  0  0  0  0  0
    1.0095   -5.4367   30.0531 C   0  0  0  0  0  0  0  0  0  0  0  0
    0.5477   -6.5595   30.9857 C   0  0  0  0  0  0  0  0  0  0  0  0
   -0.6513   -6.1621   31.8275 C   0  0  0  0  0  0  0  0  0  0  0  0
   -0.7723   -4.6526   32.0526 C   0  0  0  0  0  0  0  0  0  0  0  0
    0.5557   -3.8976   32.0863 C   0  0  0  0  0  0  0  0  0  0  0  0
    1.4554   -4.2140   30.8633 C   0  0  0  0  0  0  0  0  0  0  0  0
    0.2623   -2.4218   32.1021 N   0  0  0  0  0  0  0  0  0  0  0  0
    1.2990   -1.8249   32.8962 N   0  0  0  0  0  0  0  0  0  0  0  0
    1.7522   -2.8210   33.7835 C   0  0  0  0  0  0  0  0  0  0  0  0
    2.5797   -2.6496   34.8759 C   0  0  0  0  0  0  0  0  0  0  0  0
    2.8971   -3.7740   35.6324 C   0  0  0  0  0  0  0  0  0  0  0  0
    2.3879   -5.0326   35.2855 C   0  0  0  0  0  0  0  0  0  0  0  0
    1.5967   -5.2008   34.1487 C   0  0  0  0  0  0  0  0  0  0  0  0
    1.3127   -4.0866   33.3811 C   0  0  0  0  0  0  0  0  0  0  0  0
    5.1991   -3.9102   29.8179 H   0  0  0  0  0  0  0  0  0  0  0  0
    6.1727   -2.5785   29.1641 H   0  0  0  0  0  0  0  0  0  0  0  0
    6.8547   -4.2118   29.3269 H   0  0  0  0  0  0  0  0  0  0  0  0
    6.3153   -3.7237   26.9578 H   0  0  0  0  0  0  0  0  0  0  0  0
    4.6332   -3.4021   27.3449 H   0  0  0  0  0  0  0  0  0  0  0  0
    3.2177   -4.2146   28.7510 H   0  0  0  0  0  0  0  0  0  0  0  0
    2.0427   -7.0239   28.9327 H   0  0  0  0  0  0  0  0  0  0  0  0
    0.1554   -5.1349   29.4375 H   0  0  0  0  0  0  0  0  0  0  0  0
    1.3702   -6.8187   31.6587 H   0  0  0  0  0  0  0  0  0  0  0  0
    0.3026   -7.4733   30.4306 H   0  0  0  0  0  0  0  0  0  0  0  0
   -1.5533   -6.5319   31.3348 H   0  0  0  0  0  0  0  0  0  0  0  0
   -0.6218   -6.6921   32.7860 H   0  0  0  0  0  0  0  0  0  0  0  0
   -1.3762   -4.2364   31.2364 H   0  0  0  0  0  0  0  0  0  0  0  0
   -1.3372   -4.4739   32.9747 H   0  0  0  0  0  0  0  0  0  0  0  0
    2.4970   -4.3387   31.1940 H   0  0  0  0  0  0  0  0  0  0  0  0
    1.4801   -3.3622   30.1688 H   0  0  0  0  0  0  0  0  0  0  0  0
    0.2643   -2.0341   31.1573 H   0  0  0  0  0  0  0  0  0  0  0  0
    1.0190   -0.9858   33.4113 H   0  0  0  0  0  0  0  0  0  0  0  0
    2.9542   -1.6701   35.1500 H   0  0  0  0  0  0  0  0  0  0  0  0
    3.5276   -3.6714   36.5126 H   0  0  0  0  0  0  0  0  0  0  0  0
    2.6288   -5.8918   35.9079 H   0  0  0  0  0  0  0  0  0  0  0  0
    1.2377   -6.1881   33.8957 H   0  0  0  0  0  0  0  0  0  0  0  0
  1  2  1  0
  2  3  1  0
  3  4  1  0
  4  5  2  0
  4  6  1  0
  6  7  2  3
  7  8  1  0
  8  9  1  0
  9 10  1  0
 10 11  1  0
 11 12  1  0
 12 13  1  0
 12 14  1  0
 14 15  1  0
 15 16  1  0
 16 17  2  0
 17 18  1  0
 18 19  2  0
 19 20  1  0
 20 21  2  0
 13  8  1  0
 21 16  1  0
 21 12  1  0
  1 22  1  0
  1 23  1  0
  1 24  1  0
  2 25  1  0
  2 26  1  0
  6 27  1  0
  7 28  1  0
  8 29  1  0
  9 30  1  0
  9 31  1  0
 10 32  1  0
 10 33  1  0
 11 34  1  0
 11 35  1  0
 13 36  1  0
 13 37  1  0
 14 38  1  0
 15 39  1  0
 17 40  1  0
 18 41  1  0
 19 42  1  0
 20 43  1  0
M  END
>  <Energy>  (167) 
85.304070808410444

>  <compound_id>  (167) 
265

>  <target_id>  (167) 
1

>  <reference_id>  (167) 
41

>  <inspiration_ids>  (167) 
[200, 41]

>  <energy_score>  (167) 
-34.96896071068889

>  <distance_score>  (167) 
1.5883229341654308

>  <path>  (167) 
/opt/xchem-fragalysis-2/maxwin/BulkDock/SCRATCH/505737/C265-P41/C265-P41.minimised.mol

>  <scratch_subdir>  (167) 
/opt/xchem-fragalysis-2/maxwin/BulkDock/SCRATCH/505737/C265-P41

>  <fragmenstein_runtime>  (167) 
5.6808061599731445

>  <fragmenstein_outcome>  (167) 
too moved

>  <fragmenstein_mode>  (167) 
expansion

>  <fragmenstein_error>  (167) 


$$$$
C267-P200
     RDKit          3D

 43 45  0  0  0  0  0  0  0  0999 V2000
    5.6053   -3.1803   29.0583 C   0  0  0  0  0  0  0  0  0  0  0  0
    4.6951   -3.4750   27.8796 C   0  0  0  0  0  0  0  0  0  0  0  0
    4.6053   -4.9000   27.6837 O   0  0  0  0  0  0  0  0  0  0  0  0
    3.6584   -5.6893   28.2329 C   0  0  0  0  0  0  0  0  0  0  0  0
    3.5638   -6.8822   27.9434 O   0  0  0  0  0  0  0  0  0  0  0  0
    2.7807   -5.0987   29.2669 C   0  0  0  0  0  0  0  0  0  0  0  0
    1.6795   -5.7816   29.6126 C   0  0  0  0  0  0  0  0  0  0  0  0
    0.7501   -5.5027   30.7752 C   0  0  0  0  0  0  0  0  0  0  0  0
   -0.0299   -6.7982   31.0414 C   0  0  0  0  0  0  0  0  0  0  0  0
   -0.9633   -6.7344   32.2345 C   0  0  0  0  0  0  0  0  0  0  0  0
   -0.6626   -5.5981   33.2119 C   0  0  0  0  0  0  0  0  0  0  0  0
    0.8520   -5.4041   33.4122 C   0  0  0  0  0  0  0  0  0  0  0  0
    1.4527   -4.9307   32.0542 C   0  0  0  0  0  0  0  0  0  0  0  0
    1.4093   -6.7677   33.7920 N   0  0  0  0  0  0  0  0  0  0  0  0
    1.4383   -6.7124   35.2535 N   0  0  0  0  0  0  0  0  0  0  0  0
    1.3020   -5.3956   35.6621 C   0  0  0  0  0  0  0  0  0  0  0  0
    1.2352   -4.9206   36.9260 C   0  0  0  0  0  0  0  0  0  0  0  0
    1.0551   -3.5693   37.1624 N   0  0  0  0  0  0  0  0  0  0  0  0
    0.8534   -2.7158   36.0929 C   0  0  0  0  0  0  0  0  0  0  0  0
    0.8727   -3.1832   34.8232 C   0  0  0  0  0  0  0  0  0  0  0  0
    1.1302   -4.5265   34.5697 N   0  0  0  0  0  0  0  0  0  0  0  0
    5.2388   -3.6327   29.9837 H   0  0  0  0  0  0  0  0  0  0  0  0
    6.6018   -3.5990   28.8807 H   0  0  0  0  0  0  0  0  0  0  0  0
    5.7029   -2.1016   29.2099 H   0  0  0  0  0  0  0  0  0  0  0  0
    3.7054   -3.0216   27.9936 H   0  0  0  0  0  0  0  0  0  0  0  0
    5.1316   -3.0571   26.9662 H   0  0  0  0  0  0  0  0  0  0  0  0
    3.0680   -4.1966   29.7826 H   0  0  0  0  0  0  0  0  0  0  0  0
    1.4621   -6.6882   29.0558 H   0  0  0  0  0  0  0  0  0  0  0  0
    0.0188   -4.7564   30.4346 H   0  0  0  0  0  0  0  0  0  0  0  0
    0.6682   -7.6218   31.1988 H   0  0  0  0  0  0  0  0  0  0  0  0
   -0.6137   -7.0839   30.1561 H   0  0  0  0  0  0  0  0  0  0  0  0
   -0.9403   -7.6977   32.7607 H   0  0  0  0  0  0  0  0  0  0  0  0
   -1.9782   -6.6457   31.8684 H   0  0  0  0  0  0  0  0  0  0  0  0
   -1.1050   -4.6647   32.8395 H   0  0  0  0  0  0  0  0  0  0  0  0
   -1.1654   -5.8143   34.1627 H   0  0  0  0  0  0  0  0  0  0  0  0
    2.5277   -5.1531   32.0447 H   0  0  0  0  0  0  0  0  0  0  0  0
    1.3968   -3.8356   31.9928 H   0  0  0  0  0  0  0  0  0  0  0  0
    2.3922   -6.7065   33.5169 H   0  0  0  0  0  0  0  0  0  0  0  0
    0.7643   -7.3084   35.7400 H   0  0  0  0  0  0  0  0  0  0  0  0
    1.3234   -5.5448   37.8062 H   0  0  0  0  0  0  0  0  0  0  0  0
    0.8651   -3.2471   38.1034 H   0  0  0  0  0  0  0  0  0  0  0  0
    0.6410   -1.6835   36.3450 H   0  0  0  0  0  0  0  0  0  0  0  0
    0.6676   -2.5633   33.9600 H   0  0  0  0  0  0  0  0  0  0  0  0
  1  2  1  0
  2  3  1  0
  3  4  1  0
  4  5  2  0
  4  6  1  0
  6  7  2  3
  7  8  1  0
  8  9  1  0
  9 10  1  0
 10 11  1  0
 11 12  1  0
 12 13  1  0
 12 14  1  0
 14 15  1  0
 15 16  1  0
 16 17  2  0
 17 18  1  0
 18 19  1  0
 19 20  2  0
 20 21  1  0
 13  8  1  0
 21 16  1  0
 21 12  1  0
  1 22  1  0
  1 23  1  0
  1 24  1  0
  2 25  1  0
  2 26  1  0
  6 27  1  0
  7 28  1  0
  8 29  1  0
  9 30  1  0
  9 31  1  0
 10 32  1  0
 10 33  1  0
 11 34  1  0
 11 35  1  0
 13 36  1  0
 13 37  1  0
 14 38  1  0
 15 39  1  0
 17 40  1  0
 18 41  1  0
 19 42  1  0
 20 43  1  0
M  END
>  <Energy>  (168) 
102.22787941688274

>  <compound_id>  (168) 
267

>  <target_id>  (168) 
1

>  <reference_id>  (168) 
200

>  <inspiration_ids>  (168) 
[200, 56]

>  <energy_score>  (168) 
-45.719717533674526

>  <distance_score>  (168) 
1.6287439541383348

>  <path>  (168) 
/opt/xchem-fragalysis-2/maxwin/BulkDock/SCRATCH/505737/C267-P200/C267-P200.minimised.mol

>  <scratch_subdir>  (168) 
/opt/xchem-fragalysis-2/maxwin/BulkDock/SCRATCH/505737/C267-P200

>  <fragmenstein_runtime>  (168) 
2.9071805477142334

>  <fragmenstein_outcome>  (168) 
too moved

>  <fragmenstein_mode>  (168) 
expansion

>  <fragmenstein_error>  (168) 


$$$$
C267-P56
     RDKit          3D

 43 45  0  0  0  0  0  0  0  0999 V2000
    6.2483   -2.2808   28.9672 C   0  0  0  0  0  0  0  0  0  0  0  0
    7.0837   -3.2802   29.7425 C   0  0  0  0  0  0  0  0  0  0  0  0
    6.2561   -3.7942   30.7864 O   0  0  0  0  0  0  0  0  0  0  0  0
    5.4606   -4.8166   30.3994 C   0  0  0  0  0  0  0  0  0  0  0  0
    5.6930   -5.6554   29.5441 O   0  0  0  0  0  0  0  0  0  0  0  0
    4.2013   -4.6641   31.1444 C   0  0  0  0  0  0  0  0  0  0  0  0
    2.9824   -4.7696   30.5810 C   0  0  0  0  0  0  0  0  0  0  0  0
    1.7579   -4.4883   31.3916 C   0  0  0  0  0  0  0  0  0  0  0  0
    0.4676   -4.4880   30.5821 C   0  0  0  0  0  0  0  0  0  0  0  0
   -0.5989   -3.9252   31.5003 C   0  0  0  0  0  0  0  0  0  0  0  0
   -0.7650   -4.7119   32.7952 C   0  0  0  0  0  0  0  0  0  0  0  0
    0.4940   -5.2658   33.4974 C   0  0  0  0  0  0  0  0  0  0  0  0
    1.6267   -5.5115   32.5049 C   0  0  0  0  0  0  0  0  0  0  0  0
    0.0872   -6.6332   34.0587 N   0  0  0  0  0  0  0  0  0  0  0  0
   -0.1672   -6.3564   35.4764 N   0  0  0  0  0  0  0  0  0  0  0  0
    0.3785   -5.1218   35.7928 C   0  0  0  0  0  0  0  0  0  0  0  0
    0.4669   -4.5566   37.0157 C   0  0  0  0  0  0  0  0  0  0  0  0
    1.0833   -3.3248   37.1918 N   0  0  0  0  0  0  0  0  0  0  0  0
    1.6901   -2.7294   36.0919 C   0  0  0  0  0  0  0  0  0  0  0  0
    1.5671   -3.2582   34.8527 C   0  0  0  0  0  0  0  0  0  0  0  0
    0.8789   -4.4505   34.6696 N   0  0  0  0  0  0  0  0  0  0  0  0
    5.9326   -1.4611   29.6221 H   0  0  0  0  0  0  0  0  0  0  0  0
    5.3324   -2.7329   28.5772 H   0  0  0  0  0  0  0  0  0  0  0  0
    6.8216   -1.8570   28.1380 H   0  0  0  0  0  0  0  0  0  0  0  0
    7.4736   -4.0729   29.0945 H   0  0  0  0  0  0  0  0  0  0  0  0
    7.9392   -2.7806   30.2076 H   0  0  0  0  0  0  0  0  0  0  0  0
    4.3209   -4.3834   32.1871 H   0  0  0  0  0  0  0  0  0  0  0  0
    2.8463   -4.9549   29.5362 H   0  0  0  0  0  0  0  0  0  0  0  0
    1.8943   -3.4861   31.8189 H   0  0  0  0  0  0  0  0  0  0  0  0
    0.1986   -5.4924   30.2333 H   0  0  0  0  0  0  0  0  0  0  0  0
    0.5618   -3.8484   29.6965 H   0  0  0  0  0  0  0  0  0  0  0  0
   -1.5558   -3.8587   30.9768 H   0  0  0  0  0  0  0  0  0  0  0  0
   -0.3385   -2.8886   31.7549 H   0  0  0  0  0  0  0  0  0  0  0  0
   -1.2766   -4.0414   33.4858 H   0  0  0  0  0  0  0  0  0  0  0  0
   -1.4424   -5.5424   32.5607 H   0  0  0  0  0  0  0  0  0  0  0  0
    1.4400   -6.4640   31.9917 H   0  0  0  0  0  0  0  0  0  0  0  0
    2.5651   -5.6101   33.0633 H   0  0  0  0  0  0  0  0  0  0  0  0
    0.9653   -7.1711   34.0217 H   0  0  0  0  0  0  0  0  0  0  0  0
   -1.1637   -6.3184   35.7027 H   0  0  0  0  0  0  0  0  0  0  0  0
    0.1248   -5.0360   37.9233 H   0  0  0  0  0  0  0  0  0  0  0  0
    1.5360   -3.1792   38.0885 H   0  0  0  0  0  0  0  0  0  0  0  0
    2.2504   -1.8264   36.3018 H   0  0  0  0  0  0  0  0  0  0  0  0
    2.0040   -2.8082   33.9729 H   0  0  0  0  0  0  0  0  0  0  0  0
  1  2  1  0
  2  3  1  0
  3  4  1  0
  4  5  2  0
  4  6  1  0
  6  7  2  3
  7  8  1  0
  8  9  1  0
  9 10  1  0
 10 11  1  0
 11 12  1  0
 12 13  1  0
 12 14  1  0
 14 15  1  0
 15 16  1  0
 16 17  2  0
 17 18  1  0
 18 19  1  0
 19 20  2  0
 20 21  1  0
 13  8  1  0
 21 16  1  0
 21 12  1  0
  1 22  1  0
  1 23  1  0
  1 24  1  0
  2 25  1  0
  2 26  1  0
  6 27  1  0
  7 28  1  0
  8 29  1  0
  9 30  1  0
  9 31  1  0
 10 32  1  0
 10 33  1  0
 11 34  1  0
 11 35  1  0
 13 36  1  0
 13 37  1  0
 14 38  1  0
 15 39  1  0
 17 40  1  0
 18 41  1  0
 19 42  1  0
 20 43  1  0
M  END
>  <Energy>  (169) 
94.809220445696326

>  <compound_id>  (169) 
267

>  <target_id>  (169) 
1

>  <reference_id>  (169) 
56

>  <inspiration_ids>  (169) 
[200, 56]

>  <energy_score>  (169) 
-53.13837650485701

>  <distance_score>  (169) 
2.7346594492355307

>  <path>  (169) 
/opt/xchem-fragalysis-2/maxwin/BulkDock/SCRATCH/505737/C267-P56/C267-P56.minimised.mol

>  <scratch_subdir>  (169) 
/opt/xchem-fragalysis-2/maxwin/BulkDock/SCRATCH/505737/C267-P56

>  <fragmenstein_runtime>  (169) 
3.5919289588928223

>  <fragmenstein_outcome>  (169) 
too moved

>  <fragmenstein_mode>  (169) 
expansion

>  <fragmenstein_error>  (169) 


$$$$
C270-P200
     RDKit          3D

 64 66  0  0  0  0  0  0  0  0999 V2000
    5.2932   -3.1258   27.6955 C   0  0  0  0  0  0  0  0  0  0  0  0
    4.5926   -3.7543   26.5024 C   0  0  0  0  0  0  0  0  0  0  0  0
    4.5339   -5.1889   26.6535 O   0  0  0  0  0  0  0  0  0  0  0  0
    3.6193   -5.8199   27.4178 C   0  0  0  0  0  0  0  0  0  0  0  0
    3.6807   -7.0199   27.6825 O   0  0  0  0  0  0  0  0  0  0  0  0
    2.5335   -5.0077   27.9797 C   0  0  0  0  0  0  0  0  0  0  0  0
    2.3490   -5.0828   29.3045 C   0  0  0  0  0  0  0  0  0  0  0  0
    1.1740   -4.5066   30.0490 C   0  0  0  0  0  0  0  0  0  0  0  0
    0.6647   -5.5867   31.0041 C   0  0  0  0  0  0  0  0  0  0  0  0
   -0.4059   -5.0891   31.9724 C   0  0  0  0  0  0  0  0  0  0  0  0
   -0.7815   -6.2714   32.8921 C   0  0  0  0  0  0  0  0  0  0  0  0
   -1.3679   -7.1890   32.3733 O   0  0  0  0  0  0  0  0  0  0  0  0
   -0.4437   -6.0431   34.2535 N   0  0  0  0  0  0  0  0  0  0  0  0
   -0.7970   -6.7969   35.4753 C   0  0  0  0  0  0  0  0  0  0  0  0
    0.9439   -6.6295   34.5625 C   0  0  0  0  0  0  0  0  0  0  0  0
    1.9684   -5.5347   34.8423 C   0  0  0  0  0  0  0  0  0  0  0  0
    3.0738   -5.3655   33.9969 C   0  0  0  0  0  0  0  0  0  0  0  0
    4.0310   -4.3791   34.2426 C   0  0  0  0  0  0  0  0  0  0  0  0
    3.8952   -3.5425   35.3441 C   0  0  0  0  0  0  0  0  0  0  0  0
    2.8041   -3.6953   36.1944 C   0  0  0  0  0  0  0  0  0  0  0  0
    1.8491   -4.6849   35.9491 C   0  0  0  0  0  0  0  0  0  0  0  0
   -0.0723   -3.7458   32.6335 C   0  0  0  0  0  0  0  0  0  0  0  0
    0.3780   -2.6538   31.6337 C   0  0  0  0  0  0  0  0  0  0  0  0
    1.5753   -3.2485   30.8233 C   0  0  0  0  0  0  0  0  0  0  0  0
    0.8432   -1.4685   32.3608 N   0  0  0  0  0  0  0  0  0  0  0  0
    0.7238   -0.3427   31.4488 N   0  0  0  0  0  0  0  0  0  0  0  0
   -0.1053   -0.8073   30.3342 C   0  0  0  0  0  0  0  0  0  0  0  0
   -0.6283   -2.1232   30.7062 N   0  0  0  0  0  0  0  0  0  0  0  0
   -2.0075   -2.0012   31.2014 C   0  0  0  0  0  0  0  0  0  0  0  0
   -2.3199   -1.0644   32.3688 C   0  0  0  0  0  0  0  0  0  0  0  0
    4.7355   -3.2869   28.6221 H   0  0  0  0  0  0  0  0  0  0  0  0
    5.4134   -2.0488   27.5471 H   0  0  0  0  0  0  0  0  0  0  0  0
    6.2821   -3.5740   27.8379 H   0  0  0  0  0  0  0  0  0  0  0  0
    5.1813   -3.5600   25.6001 H   0  0  0  0  0  0  0  0  0  0  0  0
    3.6000   -3.3268   26.3317 H   0  0  0  0  0  0  0  0  0  0  0  0
    1.8817   -4.4656   27.3088 H   0  0  0  0  0  0  0  0  0  0  0  0
    3.0745   -5.6335   29.8996 H   0  0  0  0  0  0  0  0  0  0  0  0
    0.3768   -4.2579   29.3368 H   0  0  0  0  0  0  0  0  0  0  0  0
    0.2718   -6.4310   30.4201 H   0  0  0  0  0  0  0  0  0  0  0  0
    1.4994   -5.9998   31.5806 H   0  0  0  0  0  0  0  0  0  0  0  0
   -1.3091   -4.9101   31.3823 H   0  0  0  0  0  0  0  0  0  0  0  0
   -0.8220   -7.8881   35.3300 H   0  0  0  0  0  0  0  0  0  0  0  0
   -0.3420   -6.4576   36.4145 H   0  0  0  0  0  0  0  0  0  0  0  0
   -1.8551   -6.5497   35.5992 H   0  0  0  0  0  0  0  0  0  0  0  0
    1.1200   -7.4327   35.3062 H   0  0  0  0  0  0  0  0  0  0  0  0
    1.2593   -7.1267   33.6337 H   0  0  0  0  0  0  0  0  0  0  0  0
    3.1920   -5.9917   33.1239 H   0  0  0  0  0  0  0  0  0  0  0  0
    4.8816   -4.2635   33.5757 H   0  0  0  0  0  0  0  0  0  0  0  0
    4.6361   -2.7724   35.5434 H   0  0  0  0  0  0  0  0  0  0  0  0
    2.6919   -3.0395   37.0552 H   0  0  0  0  0  0  0  0  0  0  0  0
    1.0064   -4.7631   36.6308 H   0  0  0  0  0  0  0  0  0  0  0  0
    0.7394   -3.8785   33.3481 H   0  0  0  0  0  0  0  0  0  0  0  0
   -0.9229   -3.4191   33.2419 H   0  0  0  0  0  0  0  0  0  0  0  0
    1.9962   -2.5143   30.1233 H   0  0  0  0  0  0  0  0  0  0  0  0
    2.3976   -3.4895   31.5131 H   0  0  0  0  0  0  0  0  0  0  0  0
    1.7803   -1.6038   32.7416 H   0  0  0  0  0  0  0  0  0  0  0  0
    1.6251   -0.0447   31.0726 H   0  0  0  0  0  0  0  0  0  0  0  0
   -0.8774   -0.0719   30.0798 H   0  0  0  0  0  0  0  0  0  0  0  0
    0.5151   -0.9130   29.4355 H   0  0  0  0  0  0  0  0  0  0  0  0
   -2.6199   -1.6745   30.3524 H   0  0  0  0  0  0  0  0  0  0  0  0
   -2.3981   -2.9927   31.4424 H   0  0  0  0  0  0  0  0  0  0  0  0
   -3.3925   -1.1033   32.5888 H   0  0  0  0  0  0  0  0  0  0  0  0
   -1.7917   -1.3456   33.2829 H   0  0  0  0  0  0  0  0  0  0  0  0
   -2.0788   -0.0239   32.1344 H   0  0  0  0  0  0  0  0  0  0  0  0
  1  2  1  0
  2  3  1  0
  3  4  1  0
  4  5  2  0
  4  6  1  0
  6  7  2  3
  7  8  1  0
  8  9  1  0
  9 10  1  0
 10 11  1  0
 11 12  2  0
 11 13  1  0
 13 14  1  0
 13 15  1  0
 15 16  1  0
 16 17  2  0
 17 18  1  0
 18 19  2  0
 19 20  1  0
 20 21  2  0
 10 22  1  0
 22 23  1  0
 23 24  1  0
 23 25  1  0
 25 26  1  0
 26 27  1  0
 27 28  1  0
 28 29  1  0
 29 30  1  0
 24  8  1  0
 21 16  1  0
 28 23  1  0
  1 31  1  0
  1 32  1  0
  1 33  1  0
  2 34  1  0
  2 35  1  0
  6 36  1  0
  7 37  1  0
  8 38  1  0
  9 39  1  0
  9 40  1  0
 10 41  1  0
 14 42  1  0
 14 43  1  0
 14 44  1  0
 15 45  1  0
 15 46  1  0
 17 47  1  0
 18 48  1  0
 19 49  1  0
 20 50  1  0
 21 51  1  0
 22 52  1  0
 22 53  1  0
 24 54  1  0
 24 55  1  0
 25 56  1  0
 26 57  1  0
 27 58  1  0
 27 59  1  0
 29 60  1  0
 29 61  1  0
 30 62  1  0
 30 63  1  0
 30 64  1  0
M  END
>  <Energy>  (170) 
105.04941990559081

>  <compound_id>  (170) 
270

>  <target_id>  (170) 
1

>  <reference_id>  (170) 
200

>  <inspiration_ids>  (170) 
[200, 78]

>  <energy_score>  (170) 
11.921864139342915

>  <distance_score>  (170) 
2.0119975771469543

>  <path>  (170) 
/opt/xchem-fragalysis-2/maxwin/BulkDock/SCRATCH/505737/C270-P200/C270-P200.minimised.mol

>  <scratch_subdir>  (170) 
/opt/xchem-fragalysis-2/maxwin/BulkDock/SCRATCH/505737/C270-P200

>  <fragmenstein_runtime>  (170) 
9.262452363967896

>  <fragmenstein_outcome>  (170) 
too moved

>  <fragmenstein_mode>  (170) 
expansion

>  <fragmenstein_error>  (170) 


$$$$
C270-P78
     RDKit          3D

 64 66  0  0  0  0  0  0  0  0999 V2000
    5.8896   -3.8724   28.8486 C   0  0  0  0  0  0  0  0  0  0  0  0
    5.2648   -4.3070   27.5358 C   0  0  0  0  0  0  0  0  0  0  0  0
    4.8037   -5.6730   27.6176 O   0  0  0  0  0  0  0  0  0  0  0  0
    3.6380   -6.0918   28.1520 C   0  0  0  0  0  0  0  0  0  0  0  0
    3.3238   -7.2809   28.1226 O   0  0  0  0  0  0  0  0  0  0  0  0
    2.7626   -5.0922   28.7967 C   0  0  0  0  0  0  0  0  0  0  0  0
    1.7467   -5.5135   29.5711 C   0  0  0  0  0  0  0  0  0  0  0  0
    0.6709   -4.6567   30.2043 C   0  0  0  0  0  0  0  0  0  0  0  0
    0.0347   -5.3512   31.4221 C   0  0  0  0  0  0  0  0  0  0  0  0
    0.5089   -4.8578   32.8030 C   0  0  0  0  0  0  0  0  0  0  0  0
   -0.4022   -5.4782   33.9039 C   0  0  0  0  0  0  0  0  0  0  0  0
   -1.2867   -6.2212   33.5614 O   0  0  0  0  0  0  0  0  0  0  0  0
   -0.0720   -4.9616   35.1958 N   0  0  0  0  0  0  0  0  0  0  0  0
   -0.7740   -5.0863   36.4961 C   0  0  0  0  0  0  0  0  0  0  0  0
    0.9291   -5.8936   35.9019 C   0  0  0  0  0  0  0  0  0  0  0  0
    2.3661   -5.6348   35.4659 C   0  0  0  0  0  0  0  0  0  0  0  0
    3.2595   -6.7073   35.3391 C   0  0  0  0  0  0  0  0  0  0  0  0
    4.6129   -6.4724   35.0882 C   0  0  0  0  0  0  0  0  0  0  0  0
    5.0820   -5.1706   34.9314 C   0  0  0  0  0  0  0  0  0  0  0  0
    4.2051   -4.0982   35.0643 C   0  0  0  0  0  0  0  0  0  0  0  0
    2.8609   -4.3280   35.3571 C   0  0  0  0  0  0  0  0  0  0  0  0
    0.5672   -3.3111   32.8958 C   0  0  0  0  0  0  0  0  0  0  0  0
    0.2416   -2.5425   31.5915 C   0  0  0  0  0  0  0  0  0  0  0  0
    1.1080   -3.2154   30.4932 C   0  0  0  0  0  0  0  0  0  0  0  0
    0.6568   -1.1386   31.7214 N   0  0  0  0  0  0  0  0  0  0  0  0
   -0.1737   -0.3676   30.8079 N   0  0  0  0  0  0  0  0  0  0  0  0
   -1.2088   -1.2784   30.3175 C   0  0  0  0  0  0  0  0  0  0  0  0
   -1.1607   -2.4662   31.1670 N   0  0  0  0  0  0  0  0  0  0  0  0
   -2.1671   -2.3943   32.2375 C   0  0  0  0  0  0  0  0  0  0  0  0
   -2.2211   -1.1714   33.1531 C   0  0  0  0  0  0  0  0  0  0  0  0
    5.1626   -3.8829   29.6656 H   0  0  0  0  0  0  0  0  0  0  0  0
    6.3014   -2.8627   28.7639 H   0  0  0  0  0  0  0  0  0  0  0  0
    6.6944   -4.5581   29.1338 H   0  0  0  0  0  0  0  0  0  0  0  0
    6.0257   -4.2845   26.7486 H   0  0  0  0  0  0  0  0  0  0  0  0
    4.4600   -3.6404   27.2120 H   0  0  0  0  0  0  0  0  0  0  0  0
    2.9071   -4.0434   28.5919 H   0  0  0  0  0  0  0  0  0  0  0  0
    1.6063   -6.5841   29.7052 H   0  0  0  0  0  0  0  0  0  0  0  0
   -0.1285   -4.6054   29.4514 H   0  0  0  0  0  0  0  0  0  0  0  0
   -1.0486   -5.1909   31.3550 H   0  0  0  0  0  0  0  0  0  0  0  0
    0.1501   -6.4423   31.3655 H   0  0  0  0  0  0  0  0  0  0  0  0
    1.5171   -5.2609   32.9451 H   0  0  0  0  0  0  0  0  0  0  0  0
   -1.1050   -6.1038   36.7546 H   0  0  0  0  0  0  0  0  0  0  0  0
   -1.7201   -4.5566   36.3244 H   0  0  0  0  0  0  0  0  0  0  0  0
   -0.3055   -4.5116   37.3087 H   0  0  0  0  0  0  0  0  0  0  0  0
    1.0469   -5.8479   37.0020 H   0  0  0  0  0  0  0  0  0  0  0  0
    0.6693   -6.9290   35.6253 H   0  0  0  0  0  0  0  0  0  0  0  0
    2.9188   -7.7294   35.4885 H   0  0  0  0  0  0  0  0  0  0  0  0
    5.3094   -7.3056   35.0295 H   0  0  0  0  0  0  0  0  0  0  0  0
    6.1357   -4.9912   34.7332 H   0  0  0  0  0  0  0  0  0  0  0  0
    4.5734   -3.0794   34.9732 H   0  0  0  0  0  0  0  0  0  0  0  0
    2.2000   -3.4769   35.5123 H   0  0  0  0  0  0  0  0  0  0  0  0
    1.5995   -3.0559   33.1749 H   0  0  0  0  0  0  0  0  0  0  0  0
   -0.0296   -2.9299   33.7301 H   0  0  0  0  0  0  0  0  0  0  0  0
    1.0912   -2.6446   29.5543 H   0  0  0  0  0  0  0  0  0  0  0  0
    2.1586   -3.2021   30.8205 H   0  0  0  0  0  0  0  0  0  0  0  0
    1.6556   -1.0297   31.5481 H   0  0  0  0  0  0  0  0  0  0  0  0
    0.3383   -0.0067   30.0009 H   0  0  0  0  0  0  0  0  0  0  0  0
   -2.1876   -0.7876   30.2880 H   0  0  0  0  0  0  0  0  0  0  0  0
   -0.9820   -1.5706   29.2845 H   0  0  0  0  0  0  0  0  0  0  0  0
   -3.1529   -2.4893   31.7632 H   0  0  0  0  0  0  0  0  0  0  0  0
   -2.0792   -3.2874   32.8591 H   0  0  0  0  0  0  0  0  0  0  0  0
   -3.0197   -1.3051   33.8912 H   0  0  0  0  0  0  0  0  0  0  0  0
   -1.2906   -1.0239   33.7068 H   0  0  0  0  0  0  0  0  0  0  0  0
   -2.4464   -0.2559   32.5990 H   0  0  0  0  0  0  0  0  0  0  0  0
  1  2  1  0
  2  3  1  0
  3  4  1  0
  4  5  2  0
  4  6  1  0
  6  7  2  3
  7  8  1  0
  8  9  1  0
  9 10  1  0
 10 11  1  0
 11 12  2  0
 11 13  1  0
 13 14  1  0
 13 15  1  0
 15 16  1  0
 16 17  2  0
 17 18  1  0
 18 19  2  0
 19 20  1  0
 20 21  2  0
 10 22  1  0
 22 23  1  0
 23 24  1  0
 23 25  1  0
 25 26  1  0
 26 27  1  0
 27 28  1  0
 28 29  1  0
 29 30  1  0
 24  8  1  0
 21 16  1  0
 28 23  1  0
  1 31  1  0
  1 32  1  0
  1 33  1  0
  2 34  1  0
  2 35  1  0
  6 36  1  0
  7 37  1  0
  8 38  1  0
  9 39  1  0
  9 40  1  0
 10 41  1  0
 14 42  1  0
 14 43  1  0
 14 44  1  0
 15 45  1  0
 15 46  1  0
 17 47  1  0
 18 48  1  0
 19 49  1  0
 20 50  1  0
 21 51  1  0
 22 52  1  0
 22 53  1  0
 24 54  1  0
 24 55  1  0
 25 56  1  0
 26 57  1  0
 27 58  1  0
 27 59  1  0
 29 60  1  0
 29 61  1  0
 30 62  1  0
 30 63  1  0
 30 64  1  0
M  END
>  <Energy>  (171) 
105.88927756949255

>  <compound_id>  (171) 
270

>  <target_id>  (171) 
1

>  <reference_id>  (171) 
78

>  <inspiration_ids>  (171) 
[200, 78]

>  <energy_score>  (171) 
12.761721803243915

>  <distance_score>  (171) 
2.234145400524958

>  <path>  (171) 
/opt/xchem-fragalysis-2/maxwin/BulkDock/SCRATCH/505737/C270-P78/C270-P78.minimised.mol

>  <scratch_subdir>  (171) 
/opt/xchem-fragalysis-2/maxwin/BulkDock/SCRATCH/505737/C270-P78

>  <fragmenstein_runtime>  (171) 
9.56419587135315

>  <fragmenstein_outcome>  (171) 
too moved

>  <fragmenstein_mode>  (171) 
expansion

>  <fragmenstein_error>  (171) 


$$$$
C270-P200
     RDKit          3D

 64 66  0  0  0  0  0  0  0  0999 V2000
    4.7066   -2.9373   28.9421 C   0  0  0  0  0  0  0  0  0  0  0  0
    3.8731   -3.3817   27.7553 C   0  0  0  0  0  0  0  0  0  0  0  0
    3.9386   -4.8165   27.6432 O   0  0  0  0  0  0  0  0  0  0  0  0
    3.1457   -5.6607   28.3346 C   0  0  0  0  0  0  0  0  0  0  0  0
    3.3949   -6.8611   28.4161 O   0  0  0  0  0  0  0  0  0  0  0  0
    1.9068   -5.1176   28.9152 C   0  0  0  0  0  0  0  0  0  0  0  0
    1.4876   -5.4890   30.1383 C   0  0  0  0  0  0  0  0  0  0  0  0
    0.0927   -5.2299   30.6645 C   0  0  0  0  0  0  0  0  0  0  0  0
   -0.2138   -5.9281   32.0189 C   0  0  0  0  0  0  0  0  0  0  0  0
    0.1914   -5.1112   33.2605 C   0  0  0  0  0  0  0  0  0  0  0  0
   -0.2138   -5.7805   34.5965 C   0  0  0  0  0  0  0  0  0  0  0  0
   -0.5981   -6.8594   34.7028 O   0  0  0  0  0  0  0  0  0  0  0  0
    0.1066   -4.6283   35.6704 N   0  0  0  0  0  0  0  0  0  0  0  0
    0.1526   -4.5429   36.9642 C   0  0  0  0  0  0  0  0  0  0  0  0
   -0.3240   -4.8278   37.5810 C   0  0  0  0  0  0  0  0  0  0  0  0
    0.4038   -5.9243   38.6761 C   0  0  0  0  0  0  0  0  0  0  0  0
    0.7117   -7.2352   38.3028 C   0  0  0  0  0  0  0  0  0  0  0  0
    1.3121   -8.0664   39.2454 C   0  0  0  0  0  0  0  0  0  0  0  0
    1.5844   -7.6053   40.5361 C   0  0  0  0  0  0  0  0  0  0  0  0
    1.2647   -6.2982   40.8993 C   0  0  0  0  0  0  0  0  0  0  0  0
    0.6730   -5.4479   39.9705 C   0  0  0  0  0  0  0  0  0  0  0  0
   -0.3598   -3.6756   33.1291 C   0  0  0  0  0  0  0  0  0  0  0  0
    0.2371   -2.9662   31.9092 C   0  0  0  0  0  0  0  0  0  0  0  0
   -0.2997   -3.7404   30.6732 C   0  0  0  0  0  0  0  0  0  0  0  0
   -0.2339   -1.5769   31.8602 N   0  0  0  0  0  0  0  0  0  0  0  0
    0.8237   -0.7955   31.2533 N   0  0  0  0  0  0  0  0  0  0  0  0
    1.9261   -1.7175   31.0074 C   0  0  0  0  0  0  0  0  0  0  0  0
    1.7031   -2.8802   31.8628 N   0  0  0  0  0  0  0  0  0  0  0  0
    2.3762   -2.6656   33.1563 C   0  0  0  0  0  0  0  0  0  0  0  0
    3.7874   -3.2360   33.0703 C   0  0  0  0  0  0  0  0  0  0  0  0
    4.3307   -3.3766   29.8706 H   0  0  0  0  0  0  0  0  0  0  0  0
    4.6986   -1.8480   29.0373 H   0  0  0  0  0  0  0  0  0  0  0  0
    5.7428   -3.2735   28.8306 H   0  0  0  0  0  0  0  0  0  0  0  0
    4.2975   -2.9717   26.8329 H   0  0  0  0  0  0  0  0  0  0  0  0
    2.8443   -3.0185   27.8206 H   0  0  0  0  0  0  0  0  0  0  0  0
    1.2851   -4.5364   28.2455 H   0  0  0  0  0  0  0  0  0  0  0  0
    2.1467   -6.0580   30.7823 H   0  0  0  0  0  0  0  0  0  0  0  0
   -0.5536   -5.7336   29.9353 H   0  0  0  0  0  0  0  0  0  0  0  0
   -1.2941   -6.1149   32.0692 H   0  0  0  0  0  0  0  0  0  0  0  0
    0.2551   -6.9200   32.0539 H   0  0  0  0  0  0  0  0  0  0  0  0
    1.2868   -5.1135   33.2868 H   0  0  0  0  0  0  0  0  0  0  0  0
   -0.1134   -3.3396   36.6623 H   0  0  0  0  0  0  0  0  0  0  0  0
    1.2366   -5.1119   36.7407 H   0  0  0  0  0  0  0  0  0  0  0  0
    1.1120   -3.7832   37.3694 H   0  0  0  0  0  0  0  0  0  0  0  0
   -0.9650   -3.9703   38.2141 H   0  0  0  0  0  0  0  0  0  0  0  0
   -1.3053   -5.5222   37.4468 H   0  0  0  0  0  0  0  0  0  0  0  0
    0.4882   -7.6111   37.3078 H   0  0  0  0  0  0  0  0  0  0  0  0
    1.5622   -9.0911   38.9888 H   0  0  0  0  0  0  0  0  0  0  0  0
    2.0382   -8.2781   41.2600 H   0  0  0  0  0  0  0  0  0  0  0  0
    1.4735   -5.9499   41.9073 H   0  0  0  0  0  0  0  0  0  0  0  0
    0.4212   -4.4310   40.2580 H   0  0  0  0  0  0  0  0  0  0  0  0
   -1.4532   -3.7201   33.0394 H   0  0  0  0  0  0  0  0  0  0  0  0
   -0.1905   -3.0616   34.0192 H   0  0  0  0  0  0  0  0  0  0  0  0
   -1.3974   -3.6833   30.6826 H   0  0  0  0  0  0  0  0  0  0  0  0
   -0.0102   -3.2558   29.7326 H   0  0  0  0  0  0  0  0  0  0  0  0
   -1.1260   -1.5042   31.3717 H   0  0  0  0  0  0  0  0  0  0  0  0
    0.5487   -0.3544   30.3743 H   0  0  0  0  0  0  0  0  0  0  0  0
    2.8933   -1.2255   31.1608 H   0  0  0  0  0  0  0  0  0  0  0  0
    1.9099   -2.0316   29.9573 H   0  0  0  0  0  0  0  0  0  0  0  0
    1.9077   -3.1852   33.9920 H   0  0  0  0  0  0  0  0  0  0  0  0
    2.4072   -1.6084   33.4493 H   0  0  0  0  0  0  0  0  0  0  0  0
    4.3924   -2.7110   32.3245 H   0  0  0  0  0  0  0  0  0  0  0  0
    4.2918   -3.1333   34.0369 H   0  0  0  0  0  0  0  0  0  0  0  0
    3.7713   -4.3010   32.8136 H   0  0  0  0  0  0  0  0  0  0  0  0
  1  2  1  0
  2  3  1  0
  3  4  1  0
  4  5  2  0
  4  6  1  0
  6  7  2  3
  7  8  1  0
  8  9  1  0
  9 10  1  0
 10 11  1  0
 11 12  2  0
 11 13  1  0
 13 14  1  0
 13 15  1  0
 15 16  1  0
 16 17  2  0
 17 18  1  0
 18 19  2  0
 19 20  1  0
 20 21  2  0
 10 22  1  0
 22 23  1  0
 23 24  1  0
 23 25  1  0
 25 26  1  0
 26 27  1  0
 27 28  1  0
 28 29  1  0
 29 30  1  0
 24  8  1  0
 21 16  1  0
 28 23  1  0
  1 31  1  0
  1 32  1  0
  1 33  1  0
  2 34  1  0
  2 35  1  0
  6 36  1  0
  7 37  1  0
  8 38  1  0
  9 39  1  0
  9 40  1  0
 10 41  1  0
 14 42  1  0
 14 43  1  0
 14 44  1  0
 15 45  1  0
 15 46  1  0
 17 47  1  0
 18 48  1  0
 19 49  1  0
 20 50  1  0
 21 51  1  0
 22 52  1  0
 22 53  1  0
 24 54  1  0
 24 55  1  0
 25 56  1  0
 26 57  1  0
 27 58  1  0
 27 59  1  0
 29 60  1  0
 29 61  1  0
 30 62  1  0
 30 63  1  0
 30 64  1  0
M  END
>  <Energy>  (172) 
779.06261283882372

>  <compound_id>  (172) 
270

>  <target_id>  (172) 
1

>  <reference_id>  (172) 
200

>  <inspiration_ids>  (172) 
[200, 105]

>  <energy_score>  (172) 
685.9350570725816

>  <distance_score>  (172) 
3.3149845063249184

>  <path>  (172) 
/opt/xchem-fragalysis-2/maxwin/BulkDock/SCRATCH/505737/C270-P200/C270-P200.minimised.mol

>  <scratch_subdir>  (172) 
/opt/xchem-fragalysis-2/maxwin/BulkDock/SCRATCH/505737/C270-P200

>  <fragmenstein_runtime>  (172) 
18.60060691833496

>  <fragmenstein_outcome>  (172) 
too moved

>  <fragmenstein_mode>  (172) 
expansion

>  <fragmenstein_error>  (172) 


$$$$
C270-P105
     RDKit          3D

 64 66  0  0  0  0  0  0  0  0999 V2000
    5.3757   -3.9135   28.3505 C   0  0  0  0  0  0  0  0  0  0  0  0
    4.2183   -4.2732   27.4366 C   0  0  0  0  0  0  0  0  0  0  0  0
    2.9840   -4.2169   28.1693 O   0  0  0  0  0  0  0  0  0  0  0  0
    2.6527   -5.3370   28.8531 C   0  0  0  0  0  0  0  0  0  0  0  0
    3.2386   -6.4089   28.8400 O   0  0  0  0  0  0  0  0  0  0  0  0
    1.4273   -5.0557   29.6302 C   0  0  0  0  0  0  0  0  0  0  0  0
    1.1586   -5.7004   30.7784 C   0  0  0  0  0  0  0  0  0  0  0  0
   -0.1095   -5.4974   31.5782 C   0  0  0  0  0  0  0  0  0  0  0  0
   -0.3018   -6.5812   32.6659 C   0  0  0  0  0  0  0  0  0  0  0  0
    0.4488   -6.2447   33.9553 C   0  0  0  0  0  0  0  0  0  0  0  0
    0.2060   -7.2277   35.0944 C   0  0  0  0  0  0  0  0  0  0  0  0
   -0.7797   -7.7818   35.2955 O   0  0  0  0  0  0  0  0  0  0  0  0
    1.6075   -7.1763   35.8819 N   0  0  0  0  0  0  0  0  0  0  0  0
    2.1305   -7.7920   36.8978 C   0  0  0  0  0  0  0  0  0  0  0  0
    1.8507   -8.0204   37.6443 C   0  0  0  0  0  0  0  0  0  0  0  0
    1.5742   -9.6840   37.9216 C   0  0  0  0  0  0  0  0  0  0  0  0
    0.4083  -10.2968   37.4568 C   0  0  0  0  0  0  0  0  0  0  0  0
    0.2336  -11.6592   37.6785 C   0  0  0  0  0  0  0  0  0  0  0  0
    1.2044  -12.3964   38.3597 C   0  0  0  0  0  0  0  0  0  0  0  0
    2.3630  -11.7737   38.8270 C   0  0  0  0  0  0  0  0  0  0  0  0
    2.5569  -10.4115   38.6104 C   0  0  0  0  0  0  0  0  0  0  0  0
   -0.0155   -4.8797   34.4675 C   0  0  0  0  0  0  0  0  0  0  0  0
    0.4076   -3.7622   33.4895 C   0  0  0  0  0  0  0  0  0  0  0  0
   -0.3008   -4.0654   32.1402 C   0  0  0  0  0  0  0  0  0  0  0  0
   -0.0429   -2.4632   34.0000 N   0  0  0  0  0  0  0  0  0  0  0  0
    1.0017   -1.9802   34.8903 N   0  0  0  0  0  0  0  0  0  0  0  0
    2.1275   -2.9019   34.7416 C   0  0  0  0  0  0  0  0  0  0  0  0
    1.8731   -3.6862   33.5271 N   0  0  0  0  0  0  0  0  0  0  0  0
    2.4992   -3.0023   32.3946 C   0  0  0  0  0  0  0  0  0  0  0  0
    3.9248   -3.5183   32.2439 C   0  0  0  0  0  0  0  0  0  0  0  0
    6.3176   -3.8993   27.7950 H   0  0  0  0  0  0  0  0  0  0  0  0
    5.4650   -4.6310   29.1725 H   0  0  0  0  0  0  0  0  0  0  0  0
    5.2169   -2.9288   28.8020 H   0  0  0  0  0  0  0  0  0  0  0  0
    4.3609   -5.2563   26.9736 H   0  0  0  0  0  0  0  0  0  0  0  0
    4.1448   -3.5412   26.6257 H   0  0  0  0  0  0  0  0  0  0  0  0
    0.7575   -4.3061   29.2213 H   0  0  0  0  0  0  0  0  0  0  0  0
    1.8788   -6.4072   31.1753 H   0  0  0  0  0  0  0  0  0  0  0  0
   -0.9168   -5.6672   30.8575 H   0  0  0  0  0  0  0  0  0  0  0  0
   -1.3725   -6.6739   32.8861 H   0  0  0  0  0  0  0  0  0  0  0  0
    0.0067   -7.5665   32.2954 H   0  0  0  0  0  0  0  0  0  0  0  0
    1.5224   -6.2431   33.7303 H   0  0  0  0  0  0  0  0  0  0  0  0
    3.3847   -8.0361   36.7254 H   0  0  0  0  0  0  0  0  0  0  0  0
    2.2595   -8.6733   36.0252 H   0  0  0  0  0  0  0  0  0  0  0  0
    2.7695   -6.6961   36.9358 H   0  0  0  0  0  0  0  0  0  0  0  0
    2.4855   -7.5311   38.6044 H   0  0  0  0  0  0  0  0  0  0  0  0
    0.7826   -7.6994   38.1265 H   0  0  0  0  0  0  0  0  0  0  0  0
   -0.3516   -9.7402   36.9153 H   0  0  0  0  0  0  0  0  0  0  0  0
   -0.6595  -12.1520   37.3044 H   0  0  0  0  0  0  0  0  0  0  0  0
    1.0523  -13.4609   38.5211 H   0  0  0  0  0  0  0  0  0  0  0  0
    3.1119  -12.3564   39.3569 H   0  0  0  0  0  0  0  0  0  0  0  0
    3.4618   -9.9328   38.9726 H   0  0  0  0  0  0  0  0  0  0  0  0
   -1.1067   -4.8860   34.5834 H   0  0  0  0  0  0  0  0  0  0  0  0
    0.3576   -4.7099   35.4856 H   0  0  0  0  0  0  0  0  0  0  0  0
   -1.3807   -3.9397   32.3055 H   0  0  0  0  0  0  0  0  0  0  0  0
   -0.0666   -3.3095   31.3813 H   0  0  0  0  0  0  0  0  0  0  0  0
   -0.9555   -2.5524   34.4536 H   0  0  0  0  0  0  0  0  0  0  0  0
    0.7121   -1.9706   35.8697 H   0  0  0  0  0  0  0  0  0  0  0  0
    2.1853   -3.5716   35.6082 H   0  0  0  0  0  0  0  0  0  0  0  0
    3.0765   -2.3533   34.7301 H   0  0  0  0  0  0  0  0  0  0  0  0
    2.0044   -3.2016   31.4474 H   0  0  0  0  0  0  0  0  0  0  0  0
    2.4994   -1.9092   32.4960 H   0  0  0  0  0  0  0  0  0  0  0  0
    4.5388   -3.2864   33.1201 H   0  0  0  0  0  0  0  0  0  0  0  0
    3.9412   -4.6022   32.0922 H   0  0  0  0  0  0  0  0  0  0  0  0
    4.4001   -3.0527   31.3745 H   0  0  0  0  0  0  0  0  0  0  0  0
  1  2  1  0
  2  3  1  0
  3  4  1  0
  4  5  2  0
  4  6  1  0
  6  7  2  3
  7  8  1  0
  8  9  1  0
  9 10  1  0
 10 11  1  0
 11 12  2  0
 11 13  1  0
 13 14  1  0
 13 15  1  0
 15 16  1  0
 16 17  2  0
 17 18  1  0
 18 19  2  0
 19 20  1  0
 20 21  2  0
 10 22  1  0
 22 23  1  0
 23 24  1  0
 23 25  1  0
 25 26  1  0
 26 27  1  0
 27 28  1  0
 28 29  1  0
 29 30  1  0
 24  8  1  0
 21 16  1  0
 28 23  1  0
  1 31  1  0
  1 32  1  0
  1 33  1  0
  2 34  1  0
  2 35  1  0
  6 36  1  0
  7 37  1  0
  8 38  1  0
  9 39  1  0
  9 40  1  0
 10 41  1  0
 14 42  1  0
 14 43  1  0
 14 44  1  0
 15 45  1  0
 15 46  1  0
 17 47  1  0
 18 48  1  0
 19 49  1  0
 20 50  1  0
 21 51  1  0
 22 52  1  0
 22 53  1  0
 24 54  1  0
 24 55  1  0
 25 56  1  0
 26 57  1  0
 27 58  1  0
 27 59  1  0
 29 60  1  0
 29 61  1  0
 30 62  1  0
 30 63  1  0
 30 64  1  0
M  END
>  <Energy>  (173) 
762.47673341225675

>  <compound_id>  (173) 
270

>  <target_id>  (173) 
1

>  <reference_id>  (173) 
105

>  <inspiration_ids>  (173) 
[200, 105]

>  <energy_score>  (173) 
669.3491776460129

>  <distance_score>  (173) 
3.1059327056955994

>  <path>  (173) 
/opt/xchem-fragalysis-2/maxwin/BulkDock/SCRATCH/505737/C270-P105/C270-P105.minimised.mol

>  <scratch_subdir>  (173) 
/opt/xchem-fragalysis-2/maxwin/BulkDock/SCRATCH/505737/C270-P105

>  <fragmenstein_runtime>  (173) 
14.35753846168518

>  <fragmenstein_outcome>  (173) 
too moved

>  <fragmenstein_mode>  (173) 
expansion

>  <fragmenstein_error>  (173) 


$$$$
C272-P200
     RDKit          3D

 61 62  0  0  0  0  0  0  0  0999 V2000
    5.5880   -2.4565   28.7058 C   0  0  0  0  0  0  0  0  0  0  0  0
    4.7806   -3.2703   27.7137 C   0  0  0  0  0  0  0  0  0  0  0  0
    5.2064   -4.6465   27.7669 O   0  0  0  0  0  0  0  0  0  0  0  0
    4.4321   -5.6180   28.2954 C   0  0  0  0  0  0  0  0  0  0  0  0
    4.5092   -6.7936   27.9504 O   0  0  0  0  0  0  0  0  0  0  0  0
    3.5145   -5.2189   29.3800 C   0  0  0  0  0  0  0  0  0  0  0  0
    2.4057   -5.9548   29.5487 C   0  0  0  0  0  0  0  0  0  0  0  0
    1.3601   -5.7585   30.6140 C   0  0  0  0  0  0  0  0  0  0  0  0
    1.7191   -5.8617   32.1096 C   0  0  0  0  0  0  0  0  0  0  0  0
    0.5238   -5.8881   33.0898 C   0  0  0  0  0  0  0  0  0  0  0  0
   -0.7564   -6.5940   32.5871 C   0  0  0  0  0  0  0  0  0  0  0  0
   -1.1431   -6.2871   31.1080 C   0  0  0  0  0  0  0  0  0  0  0  0
   -1.1057   -4.6283   30.9045 C   0  0  0  0  0  0  0  0  0  0  0  0
   -1.9666   -3.3548   31.1130 C   0  0  0  0  0  0  0  0  0  0  0  0
   -3.0301   -3.3887   31.6617 O   0  0  0  0  0  0  0  0  0  0  0  0
   -1.2593   -2.2493   30.5056 N   0  0  0  0  0  0  0  0  0  0  0  0
   -1.6191   -2.1418   29.0412 C   0  0  0  0  0  0  0  0  0  0  0  0
   -1.5843   -0.7747   30.4704 C   0  0  0  0  0  0  0  0  0  0  0  0
   -0.6040    0.2108   29.8650 C   0  0  0  0  0  0  0  0  0  0  0  0
    0.7254    0.2657   30.2947 C   0  0  0  0  0  0  0  0  0  0  0  0
    1.6008    1.1988   29.7382 C   0  0  0  0  0  0  0  0  0  0  0  0
    1.1575    2.0785   28.7498 C   0  0  0  0  0  0  0  0  0  0  0  0
   -0.1618    2.0267   28.3093 C   0  0  0  0  0  0  0  0  0  0  0  0
   -1.0387    1.0960   28.8616 C   0  0  0  0  0  0  0  0  0  0  0  0
   -2.2101   -7.4522   30.6772 N   0  0  0  0  0  0  0  0  0  0  0  0
   -3.0872   -7.3732   29.2562 N   0  0  0  0  0  0  0  0  0  0  0  0
   -4.8800   -7.8830   28.8621 C   0  0  0  0  0  0  0  0  0  0  0  0
    0.1387   -6.6718   30.3237 C   0  0  0  0  0  0  0  0  0  0  0  0
    5.3085   -1.4001   28.6585 H   0  0  0  0  0  0  0  0  0  0  0  0
    6.6584   -2.5461   28.4921 H   0  0  0  0  0  0  0  0  0  0  0  0
    5.4406   -2.8128   29.7294 H   0  0  0  0  0  0  0  0  0  0  0  0
    3.7040   -3.1645   27.8832 H   0  0  0  0  0  0  0  0  0  0  0  0
    4.9822   -2.9150   26.6975 H   0  0  0  0  0  0  0  0  0  0  0  0
    3.7786   -4.3978   30.0291 H   0  0  0  0  0  0  0  0  0  0  0  0
    2.1976   -6.7335   28.8145 H   0  0  0  0  0  0  0  0  0  0  0  0
    1.1396   -4.7053   30.4286 H   0  0  0  0  0  0  0  0  0  0  0  0
    2.3921   -5.0409   32.3873 H   0  0  0  0  0  0  0  0  0  0  0  0
    2.2790   -6.7654   32.3012 H   0  0  0  0  0  0  0  0  0  0  0  0
    0.2799   -4.8612   33.3882 H   0  0  0  0  0  0  0  0  0  0  0  0
    0.8454   -6.3719   34.0214 H   0  0  0  0  0  0  0  0  0  0  0  0
   -0.6027   -7.6755   32.7078 H   0  0  0  0  0  0  0  0  0  0  0  0
   -1.5836   -6.3287   33.2521 H   0  0  0  0  0  0  0  0  0  0  0  0
   -0.7840   -4.5218   29.8610 H   0  0  0  0  0  0  0  0  0  0  0  0
   -0.2925   -4.2779   31.5408 H   0  0  0  0  0  0  0  0  0  0  0  0
   -0.8757   -1.6188   28.4277 H   0  0  0  0  0  0  0  0  0  0  0  0
   -1.5232   -3.1550   28.6450 H   0  0  0  0  0  0  0  0  0  0  0  0
   -2.6566   -1.8792   28.8122 H   0  0  0  0  0  0  0  0  0  0  0  0
   -2.6432   -0.5486   30.2569 H   0  0  0  0  0  0  0  0  0  0  0  0
   -1.5647   -0.5269   31.5452 H   0  0  0  0  0  0  0  0  0  0  0  0
    1.0807   -0.4125   31.0669 H   0  0  0  0  0  0  0  0  0  0  0  0
    2.6313    1.2472   30.0805 H   0  0  0  0  0  0  0  0  0  0  0  0
    1.8396    2.8134   28.3301 H   0  0  0  0  0  0  0  0  0  0  0  0
   -0.5140    2.7240   27.5531 H   0  0  0  0  0  0  0  0  0  0  0  0
   -2.0711    1.0844   28.5164 H   0  0  0  0  0  0  0  0  0  0  0  0
   -2.8516   -7.6155   31.4641 H   0  0  0  0  0  0  0  0  0  0  0  0
   -2.5954   -7.1103   28.3919 H   0  0  0  0  0  0  0  0  0  0  0  0
   -4.9083   -8.0964   27.7920 H   0  0  0  0  0  0  0  0  0  0  0  0
   -5.6826   -7.0607   28.9936 H   0  0  0  0  0  0  0  0  0  0  0  0
   -5.6074   -8.4154   29.4413 H   0  0  0  0  0  0  0  0  0  0  0  0
   -0.1247   -6.5395   29.2936 H   0  0  0  0  0  0  0  0  0  0  0  0
    0.4018   -7.7270   30.4665 H   0  0  0  0  0  0  0  0  0  0  0  0
  1  2  1  0
  2  3  1  0
  3  4  1  0
  4  5  2  0
  4  6  1  0
  6  7  2  3
  7  8  1  0
  8  9  1  0
  9 10  1  0
 10 11  1  0
 11 12  1  0
 12 13  1  0
 13 14  1  0
 14 15  2  0
 14 16  1  0
 16 17  1  0
 16 18  1  0
 18 19  1  0
 19 20  2  0
 20 21  1  0
 21 22  2  0
 22 23  1  0
 23 24  2  0
 12 25  1  0
 25 26  1  0
 26 27  1  0
 12 28  1  0
 28  8  1  0
 24 19  1  0
  1 29  1  0
  1 30  1  0
  1 31  1  0
  2 32  1  0
  2 33  1  0
  6 34  1  0
  7 35  1  0
  8 36  1  0
  9 37  1  0
  9 38  1  0
 10 39  1  0
 10 40  1  0
 11 41  1  0
 11 42  1  0
 13 43  1  0
 13 44  1  0
 17 45  1  0
 17 46  1  0
 17 47  1  0
 18 48  1  0
 18 49  1  0
 20 50  1  0
 21 51  1  0
 22 52  1  0
 23 53  1  0
 24 54  1  0
 25 55  1  0
 26 56  1  0
 27 57  1  0
 27 58  1  0
 27 59  1  0
 28 60  1  0
 28 61  1  0
M  END
>  <Energy>  (174) 
331.74310637195128

>  <compound_id>  (174) 
272

>  <target_id>  (174) 
1

>  <reference_id>  (174) 
200

>  <inspiration_ids>  (174) 
[200, 130]

>  <energy_score>  (174) 
153.67845107699634

>  <distance_score>  (174) 
1.4915190542157795

>  <path>  (174) 
/opt/xchem-fragalysis-2/maxwin/BulkDock/SCRATCH/505737/C272-P200/C272-P200.minimised.mol

>  <scratch_subdir>  (174) 
/opt/xchem-fragalysis-2/maxwin/BulkDock/SCRATCH/505737/C272-P200

>  <fragmenstein_runtime>  (174) 
9.493236780166626

>  <fragmenstein_outcome>  (174) 
too moved

>  <fragmenstein_mode>  (174) 
expansion

>  <fragmenstein_error>  (174) 


$$$$
C272-P130
     RDKit          3D

 61 62  0  0  0  0  0  0  0  0999 V2000
    5.5035   -7.0901   26.4102 C   0  0  0  0  0  0  0  0  0  0  0  0
    5.7629   -5.6127   26.5674 C   0  0  0  0  0  0  0  0  0  0  0  0
    4.9601   -5.1583   27.6609 O   0  0  0  0  0  0  0  0  0  0  0  0
    5.2010   -3.8722   28.0042 C   0  0  0  0  0  0  0  0  0  0  0  0
    6.0068   -3.1213   27.4752 O   0  0  0  0  0  0  0  0  0  0  0  0
    4.3667   -3.4606   29.1482 C   0  0  0  0  0  0  0  0  0  0  0  0
    3.4616   -4.2194   29.7929 C   0  0  0  0  0  0  0  0  0  0  0  0
    2.6794   -3.6555   30.9537 C   0  0  0  0  0  0  0  0  0  0  0  0
    2.7446   -4.5398   32.2007 C   0  0  0  0  0  0  0  0  0  0  0  0
    1.9868   -3.8888   33.3559 C   0  0  0  0  0  0  0  0  0  0  0  0
    0.5581   -3.4947   32.9652 C   0  0  0  0  0  0  0  0  0  0  0  0
    0.4426   -2.6415   31.6516 C   0  0  0  0  0  0  0  0  0  0  0  0
    0.9611   -1.1962   31.9520 C   0  0  0  0  0  0  0  0  0  0  0  0
    1.4237   -0.3376   30.7568 C   0  0  0  0  0  0  0  0  0  0  0  0
    2.1641   -0.7994   29.9302 O   0  0  0  0  0  0  0  0  0  0  0  0
    0.8783    0.9780   30.8831 N   0  0  0  0  0  0  0  0  0  0  0  0
    1.7842    1.8346   31.7277 C   0  0  0  0  0  0  0  0  0  0  0  0
    0.9655    2.1863   29.9536 C   0  0  0  0  0  0  0  0  0  0  0  0
   -0.0940    2.0843   28.8504 C   0  0  0  0  0  0  0  0  0  0  0  0
   -0.3849    0.8871   28.1938 C   0  0  0  0  0  0  0  0  0  0  0  0
   -1.4213    0.8201   27.2612 C   0  0  0  0  0  0  0  0  0  0  0  0
   -2.1346    1.9616   26.9137 C   0  0  0  0  0  0  0  0  0  0  0  0
   -1.8018    3.1777   27.4918 C   0  0  0  0  0  0  0  0  0  0  0  0
   -0.7867    3.2392   28.4473 C   0  0  0  0  0  0  0  0  0  0  0  0
   -1.0212   -2.6482   31.3973 N   0  0  0  0  0  0  0  0  0  0  0  0
   -1.5050   -1.7816   30.3708 N   0  0  0  0  0  0  0  0  0  0  0  0
   -1.4400   -2.3613   29.0358 C   0  0  0  0  0  0  0  0  0  0  0  0
    1.2138   -3.4242   30.5583 C   0  0  0  0  0  0  0  0  0  0  0  0
    5.7906   -7.6248   27.3213 H   0  0  0  0  0  0  0  0  0  0  0  0
    4.4382   -7.2841   26.2457 H   0  0  0  0  0  0  0  0  0  0  0  0
    6.0701   -7.5003   25.5695 H   0  0  0  0  0  0  0  0  0  0  0  0
    6.8249   -5.4473   26.7804 H   0  0  0  0  0  0  0  0  0  0  0  0
    5.4789   -5.0774   25.6564 H   0  0  0  0  0  0  0  0  0  0  0  0
    4.5378   -2.4289   29.4456 H   0  0  0  0  0  0  0  0  0  0  0  0
    3.2625   -5.2400   29.4834 H   0  0  0  0  0  0  0  0  0  0  0  0
    3.1351   -2.6970   31.2305 H   0  0  0  0  0  0  0  0  0  0  0  0
    3.7866   -4.7035   32.5007 H   0  0  0  0  0  0  0  0  0  0  0  0
    2.3123   -5.5268   31.9916 H   0  0  0  0  0  0  0  0  0  0  0  0
    2.5379   -3.0084   33.7047 H   0  0  0  0  0  0  0  0  0  0  0  0
    1.9518   -4.5830   34.2038 H   0  0  0  0  0  0  0  0  0  0  0  0
   -0.0102   -4.4299   32.8509 H   0  0  0  0  0  0  0  0  0  0  0  0
    0.0958   -2.9591   33.8054 H   0  0  0  0  0  0  0  0  0  0  0  0
    0.1985   -0.6526   32.5271 H   0  0  0  0  0  0  0  0  0  0  0  0
    1.8344   -1.2371   32.6139 H   0  0  0  0  0  0  0  0  0  0  0  0
    2.7656    2.0598   31.2815 H   0  0  0  0  0  0  0  0  0  0  0  0
    1.2787    2.6979   32.1854 H   0  0  0  0  0  0  0  0  0  0  0  0
    2.0483    1.2208   32.6019 H   0  0  0  0  0  0  0  0  0  0  0  0
    0.7431    3.1555   30.4286 H   0  0  0  0  0  0  0  0  0  0  0  0
    1.9278    2.1967   29.4177 H   0  0  0  0  0  0  0  0  0  0  0  0
    0.1831   -0.0127   28.4009 H   0  0  0  0  0  0  0  0  0  0  0  0
   -1.6719   -0.1308   26.7955 H   0  0  0  0  0  0  0  0  0  0  0  0
   -2.9496    1.9051   26.1968 H   0  0  0  0  0  0  0  0  0  0  0  0
   -2.3567    4.0743   27.2250 H   0  0  0  0  0  0  0  0  0  0  0  0
   -0.5717    4.2048   28.9021 H   0  0  0  0  0  0  0  0  0  0  0  0
   -1.3587   -3.6049   31.2839 H   0  0  0  0  0  0  0  0  0  0  0  0
   -1.1562   -0.8193   30.3796 H   0  0  0  0  0  0  0  0  0  0  0  0
   -0.4800   -2.1719   28.5531 H   0  0  0  0  0  0  0  0  0  0  0  0
   -2.2153   -1.9130   28.4097 H   0  0  0  0  0  0  0  0  0  0  0  0
   -1.6019   -3.4405   29.0529 H   0  0  0  0  0  0  0  0  0  0  0  0
    1.1732   -2.9125   29.5946 H   0  0  0  0  0  0  0  0  0  0  0  0
    0.7301   -4.3979   30.3885 H   0  0  0  0  0  0  0  0  0  0  0  0
  1  2  1  0
  2  3  1  0
  3  4  1  0
  4  5  2  0
  4  6  1  0
  6  7  2  3
  7  8  1  0
  8  9  1  0
  9 10  1  0
 10 11  1  0
 11 12  1  0
 12 13  1  0
 13 14  1  0
 14 15  2  0
 14 16  1  0
 16 17  1  0
 16 18  1  0
 18 19  1  0
 19 20  2  0
 20 21  1  0
 21 22  2  0
 22 23  1  0
 23 24  2  0
 12 25  1  0
 25 26  1  0
 26 27  1  0
 12 28  1  0
 28  8  1  0
 24 19  1  0
  1 29  1  0
  1 30  1  0
  1 31  1  0
  2 32  1  0
  2 33  1  0
  6 34  1  0
  7 35  1  0
  8 36  1  0
  9 37  1  0
  9 38  1  0
 10 39  1  0
 10 40  1  0
 11 41  1  0
 11 42  1  0
 13 43  1  0
 13 44  1  0
 17 45  1  0
 17 46  1  0
 17 47  1  0
 18 48  1  0
 18 49  1  0
 20 50  1  0
 21 51  1  0
 22 52  1  0
 23 53  1  0
 24 54  1  0
 25 55  1  0
 26 56  1  0
 27 57  1  0
 27 58  1  0
 27 59  1  0
 28 60  1  0
 28 61  1  0
M  END
>  <Energy>  (175) 
136.20522848700378

>  <compound_id>  (175) 
272

>  <target_id>  (175) 
1

>  <reference_id>  (175) 
130

>  <inspiration_ids>  (175) 
[200, 130]

>  <energy_score>  (175) 
-41.85942680795398

>  <distance_score>  (175) 
3.572723262588593

>  <path>  (175) 
/opt/xchem-fragalysis-2/maxwin/BulkDock/SCRATCH/505737/C272-P130/C272-P130.minimised.mol

>  <scratch_subdir>  (175) 
/opt/xchem-fragalysis-2/maxwin/BulkDock/SCRATCH/505737/C272-P130

>  <fragmenstein_runtime>  (175) 
13.634457111358643

>  <fragmenstein_outcome>  (175) 
too moved

>  <fragmenstein_mode>  (175) 
expansion

>  <fragmenstein_error>  (175) 


$$$$
C272-P200
     RDKit          3D

 61 62  0  0  0  0  0  0  0  0999 V2000
    6.2294   -2.0115   30.3906 C   0  0  0  0  0  0  0  0  0  0  0  0
    5.0472   -1.8280   29.4602 C   0  0  0  0  0  0  0  0  0  0  0  0
    4.6042   -3.1087   28.9962 O   0  0  0  0  0  0  0  0  0  0  0  0
    3.6944   -3.7337   29.7843 C   0  0  0  0  0  0  0  0  0  0  0  0
    3.2226   -3.3159   30.8262 O   0  0  0  0  0  0  0  0  0  0  0  0
    3.3988   -5.0390   29.1508 C   0  0  0  0  0  0  0  0  0  0  0  0
    2.4443   -5.9081   29.5240 C   0  0  0  0  0  0  0  0  0  0  0  0
    1.3949   -5.7547   30.6095 C   0  0  0  0  0  0  0  0  0  0  0  0
    1.7404   -5.8946   32.1066 C   0  0  0  0  0  0  0  0  0  0  0  0
    0.5389   -5.9005   33.0787 C   0  0  0  0  0  0  0  0  0  0  0  0
   -0.7420   -6.5988   32.5701 C   0  0  0  0  0  0  0  0  0  0  0  0
   -1.1218   -6.2892   31.0898 C   0  0  0  0  0  0  0  0  0  0  0  0
   -1.0928   -4.6342   30.8935 C   0  0  0  0  0  0  0  0  0  0  0  0
   -1.9556   -3.3623   31.0991 C   0  0  0  0  0  0  0  0  0  0  0  0
   -3.0186   -3.3911   31.6501 O   0  0  0  0  0  0  0  0  0  0  0  0
   -1.2428   -2.2600   30.4938 N   0  0  0  0  0  0  0  0  0  0  0  0
   -1.6047   -2.1457   29.0307 C   0  0  0  0  0  0  0  0  0  0  0  0
   -1.5574   -0.7854   30.4635 C   0  0  0  0  0  0  0  0  0  0  0  0
   -0.5511    0.1867   29.8789 C   0  0  0  0  0  0  0  0  0  0  0  0
    0.7882    0.1686   30.2821 C   0  0  0  0  0  0  0  0  0  0  0  0
    1.6905    1.0879   29.7467 C   0  0  0  0  0  0  0  0  0  0  0  0
    1.2652    2.0255   28.8049 C   0  0  0  0  0  0  0  0  0  0  0  0
   -0.0631    2.0440   28.3887 C   0  0  0  0  0  0  0  0  0  0  0  0
   -0.9674    1.1266   28.9192 C   0  0  0  0  0  0  0  0  0  0  0  0
   -2.1991   -7.4513   30.6664 N   0  0  0  0  0  0  0  0  0  0  0  0
   -3.0838   -7.3714   29.2520 N   0  0  0  0  0  0  0  0  0  0  0  0
   -4.8759   -7.8833   28.8615 C   0  0  0  0  0  0  0  0  0  0  0  0
    0.1685   -6.6651   30.3056 C   0  0  0  0  0  0  0  0  0  0  0  0
    5.9462   -2.5859   31.2784 H   0  0  0  0  0  0  0  0  0  0  0  0
    7.0293   -2.5692   29.8923 H   0  0  0  0  0  0  0  0  0  0  0  0
    6.6228   -1.0432   30.7128 H   0  0  0  0  0  0  0  0  0  0  0  0
    4.2365   -1.2716   29.9442 H   0  0  0  0  0  0  0  0  0  0  0  0
    5.3531   -1.2534   28.5800 H   0  0  0  0  0  0  0  0  0  0  0  0
    4.0124   -5.2709   28.2841 H   0  0  0  0  0  0  0  0  0  0  0  0
    2.3228   -6.7700   28.8705 H   0  0  0  0  0  0  0  0  0  0  0  0
    1.1501   -4.7046   30.4568 H   0  0  0  0  0  0  0  0  0  0  0  0
    2.4393   -5.1097   32.4144 H   0  0  0  0  0  0  0  0  0  0  0  0
    2.2629   -6.8199   32.2862 H   0  0  0  0  0  0  0  0  0  0  0  0
    0.3042   -4.8696   33.3701 H   0  0  0  0  0  0  0  0  0  0  0  0
    0.8492   -6.3829   34.0149 H   0  0  0  0  0  0  0  0  0  0  0  0
   -0.5933   -7.6812   32.6897 H   0  0  0  0  0  0  0  0  0  0  0  0
   -1.5708   -6.3303   33.2322 H   0  0  0  0  0  0  0  0  0  0  0  0
   -0.7661   -4.5232   29.8520 H   0  0  0  0  0  0  0  0  0  0  0  0
   -0.2864   -4.2836   31.5382 H   0  0  0  0  0  0  0  0  0  0  0  0
   -0.8754   -1.6062   28.4147 H   0  0  0  0  0  0  0  0  0  0  0  0
   -1.4954   -3.1551   28.6269 H   0  0  0  0  0  0  0  0  0  0  0  0
   -2.6479   -1.8975   28.8109 H   0  0  0  0  0  0  0  0  0  0  0  0
   -2.6098   -0.5445   30.2344 H   0  0  0  0  0  0  0  0  0  0  0  0
   -1.5497   -0.5427   31.5397 H   0  0  0  0  0  0  0  0  0  0  0  0
    1.1334   -0.5628   31.0109 H   0  0  0  0  0  0  0  0  0  0  0  0
    2.7284    1.0753   30.0685 H   0  0  0  0  0  0  0  0  0  0  0  0
    1.9693    2.7479   28.4007 H   0  0  0  0  0  0  0  0  0  0  0  0
   -0.4003    2.7844   27.6673 H   0  0  0  0  0  0  0  0  0  0  0  0
   -2.0048    1.1672   28.5916 H   0  0  0  0  0  0  0  0  0  0  0  0
   -2.8342   -7.6065   31.4593 H   0  0  0  0  0  0  0  0  0  0  0  0
   -2.5901   -7.1150   28.3866 H   0  0  0  0  0  0  0  0  0  0  0  0
   -4.9067   -8.0965   27.7914 H   0  0  0  0  0  0  0  0  0  0  0  0
   -5.6809   -7.0630   28.9928 H   0  0  0  0  0  0  0  0  0  0  0  0
   -5.6030   -8.4134   29.4439 H   0  0  0  0  0  0  0  0  0  0  0  0
   -0.0872   -6.5141   29.2772 H   0  0  0  0  0  0  0  0  0  0  0  0
    0.4281   -7.7225   30.4349 H   0  0  0  0  0  0  0  0  0  0  0  0
  1  2  1  0
  2  3  1  0
  3  4  1  0
  4  5  2  0
  4  6  1  0
  6  7  2  3
  7  8  1  0
  8  9  1  0
  9 10  1  0
 10 11  1  0
 11 12  1  0
 12 13  1  0
 13 14  1  0
 14 15  2  0
 14 16  1  0
 16 17  1  0
 16 18  1  0
 18 19  1  0
 19 20  2  0
 20 21  1  0
 21 22  2  0
 22 23  1  0
 23 24  2  0
 12 25  1  0
 25 26  1  0
 26 27  1  0
 12 28  1  0
 28  8  1  0
 24 19  1  0
  1 29  1  0
  1 30  1  0
  1 31  1  0
  2 32  1  0
  2 33  1  0
  6 34  1  0
  7 35  1  0
  8 36  1  0
  9 37  1  0
  9 38  1  0
 10 39  1  0
 10 40  1  0
 11 41  1  0
 11 42  1  0
 13 43  1  0
 13 44  1  0
 17 45  1  0
 17 46  1  0
 17 47  1  0
 18 48  1  0
 18 49  1  0
 20 50  1  0
 21 51  1  0
 22 52  1  0
 23 53  1  0
 24 54  1  0
 25 55  1  0
 26 56  1  0
 27 57  1  0
 27 58  1  0
 27 59  1  0
 28 60  1  0
 28 61  1  0
M  END
>  <Energy>  (176) 
318.72555846417288

>  <compound_id>  (176) 
272

>  <target_id>  (176) 
1

>  <reference_id>  (176) 
200

>  <inspiration_ids>  (176) 
[200, 131]

>  <energy_score>  (176) 
140.66090316921918

>  <distance_score>  (176) 
1.7942816695139698

>  <path>  (176) 
/opt/xchem-fragalysis-2/maxwin/BulkDock/SCRATCH/505737/C272-P200/C272-P200.minimised.mol

>  <scratch_subdir>  (176) 
/opt/xchem-fragalysis-2/maxwin/BulkDock/SCRATCH/505737/C272-P200

>  <fragmenstein_runtime>  (176) 
9.945674896240234

>  <fragmenstein_outcome>  (176) 
too moved

>  <fragmenstein_mode>  (176) 
expansion

>  <fragmenstein_error>  (176) 


$$$$
C272-P131
     RDKit          3D

 61 62  0  0  0  0  0  0  0  0999 V2000
    5.6775   -2.9957   31.8409 C   0  0  0  0  0  0  0  0  0  0  0  0
    4.2095   -2.6540   31.6614 C   0  0  0  0  0  0  0  0  0  0  0  0
    3.5456   -3.7126   30.9595 O   0  0  0  0  0  0  0  0  0  0  0  0
    3.7048   -3.7035   29.6192 C   0  0  0  0  0  0  0  0  0  0  0  0
    4.2421   -2.8325   28.9530 O   0  0  0  0  0  0  0  0  0  0  0  0
    3.2314   -4.9649   29.0194 C   0  0  0  0  0  0  0  0  0  0  0  0
    2.2634   -5.8074   29.4163 C   0  0  0  0  0  0  0  0  0  0  0  0
    1.2298   -5.6692   30.5238 C   0  0  0  0  0  0  0  0  0  0  0  0
    1.6890   -5.9444   31.9787 C   0  0  0  0  0  0  0  0  0  0  0  0
    0.7443   -6.6818   32.9475 C   0  0  0  0  0  0  0  0  0  0  0  0
   -0.4871   -7.3543   32.3322 C   0  0  0  0  0  0  0  0  0  0  0  0
   -1.1409   -6.5476   31.1605 C   0  0  0  0  0  0  0  0  0  0  0  0
   -1.2607   -5.0218   31.8200 C   0  0  0  0  0  0  0  0  0  0  0  0
   -1.8489   -3.6298   31.3437 C   0  0  0  0  0  0  0  0  0  0  0  0
   -2.9843   -3.4437   31.7004 O   0  0  0  0  0  0  0  0  0  0  0  0
   -0.9500   -2.7754   30.6637 N   0  0  0  0  0  0  0  0  0  0  0  0
   -1.0741   -2.9663   29.1746 C   0  0  0  0  0  0  0  0  0  0  0  0
   -1.0804   -1.3226   30.2656 C   0  0  0  0  0  0  0  0  0  0  0  0
   -0.0045   -0.5066   29.5951 C   0  0  0  0  0  0  0  0  0  0  0  0
    1.3241   -0.5478   30.0173 C   0  0  0  0  0  0  0  0  0  0  0  0
    2.2679    0.2929   29.4255 C   0  0  0  0  0  0  0  0  0  0  0  0
    1.8892    1.1858   28.4219 C   0  0  0  0  0  0  0  0  0  0  0  0
    0.5659    1.2353   27.9964 C   0  0  0  0  0  0  0  0  0  0  0  0
   -0.3760    0.3895   28.5758 C   0  0  0  0  0  0  0  0  0  0  0  0
   -2.2803   -7.6558   30.7096 N   0  0  0  0  0  0  0  0  0  0  0  0
   -3.2025   -7.4774   29.2775 N   0  0  0  0  0  0  0  0  0  0  0  0
   -5.0026   -7.9189   28.8540 C   0  0  0  0  0  0  0  0  0  0  0  0
   -0.0246   -6.4822   30.1275 C   0  0  0  0  0  0  0  0  0  0  0  0
    5.7878   -3.9635   32.3413 H   0  0  0  0  0  0  0  0  0  0  0  0
    6.1889   -3.0758   30.8766 H   0  0  0  0  0  0  0  0  0  0  0  0
    6.1818   -2.2306   32.4380 H   0  0  0  0  0  0  0  0  0  0  0  0
    3.7269   -2.5643   32.6399 H   0  0  0  0  0  0  0  0  0  0  0  0
    4.0858   -1.6953   31.1480 H   0  0  0  0  0  0  0  0  0  0  0  0
    3.7894   -5.2043   28.1165 H   0  0  0  0  0  0  0  0  0  0  0  0
    2.1412   -6.6822   28.7807 H   0  0  0  0  0  0  0  0  0  0  0  0
    0.9567   -4.6091   30.4802 H   0  0  0  0  0  0  0  0  0  0  0  0
    1.9262   -4.9775   32.4447 H   0  0  0  0  0  0  0  0  0  0  0  0
    2.6367   -6.4490   32.0091 H   0  0  0  0  0  0  0  0  0  0  0  0
    0.4103   -5.9692   33.7141 H   0  0  0  0  0  0  0  0  0  0  0  0
    1.3087   -7.4190   33.5276 H   0  0  0  0  0  0  0  0  0  0  0  0
   -0.2007   -8.3462   31.9712 H   0  0  0  0  0  0  0  0  0  0  0  0
   -1.2216   -7.5274   33.1306 H   0  0  0  0  0  0  0  0  0  0  0  0
   -0.2758   -4.6690   32.1226 H   0  0  0  0  0  0  0  0  0  0  0  0
   -1.6800   -5.1839   32.8217 H   0  0  0  0  0  0  0  0  0  0  0  0
   -2.0145   -2.6116   28.7316 H   0  0  0  0  0  0  0  0  0  0  0  0
   -0.1748   -2.6806   28.6144 H   0  0  0  0  0  0  0  0  0  0  0  0
   -1.1107   -4.0443   29.0136 H   0  0  0  0  0  0  0  0  0  0  0  0
   -1.1364   -0.8552   31.2646 H   0  0  0  0  0  0  0  0  0  0  0  0
   -2.0985   -1.0758   29.9119 H   0  0  0  0  0  0  0  0  0  0  0  0
    1.6230   -1.2261   30.8112 H   0  0  0  0  0  0  0  0  0  0  0  0
    3.3053    0.2550   29.7473 H   0  0  0  0  0  0  0  0  0  0  0  0
    2.6285    1.8438   27.9738 H   0  0  0  0  0  0  0  0  0  0  0  0
    0.2631    1.9340   27.2211 H   0  0  0  0  0  0  0  0  0  0  0  0
   -1.4087    0.4448   28.2333 H   0  0  0  0  0  0  0  0  0  0  0  0
   -2.9277   -7.8073   31.4954 H   0  0  0  0  0  0  0  0  0  0  0  0
   -2.6986   -7.2263   28.4137 H   0  0  0  0  0  0  0  0  0  0  0  0
   -5.7332   -8.5490   29.3418 H   0  0  0  0  0  0  0  0  0  0  0  0
   -5.7654   -7.0807   29.0224 H   0  0  0  0  0  0  0  0  0  0  0  0
   -4.9718   -8.1044   27.7826 H   0  0  0  0  0  0  0  0  0  0  0  0
   -0.4550   -5.9833   29.2749 H   0  0  0  0  0  0  0  0  0  0  0  0
    0.2677   -7.5015   29.8452 H   0  0  0  0  0  0  0  0  0  0  0  0
  1  2  1  0
  2  3  1  0
  3  4  1  0
  4  5  2  0
  4  6  1  0
  6  7  2  3
  7  8  1  0
  8  9  1  0
  9 10  1  0
 10 11  1  0
 11 12  1  0
 12 13  1  0
 13 14  1  0
 14 15  2  0
 14 16  1  0
 16 17  1  0
 16 18  1  0
 18 19  1  0
 19 20  2  0
 20 21  1  0
 21 22  2  0
 22 23  1  0
 23 24  2  0
 12 25  1  0
 25 26  1  0
 26 27  1  0
 12 28  1  0
 28  8  1  0
 24 19  1  0
  1 29  1  0
  1 30  1  0
  1 31  1  0
  2 32  1  0
  2 33  1  0
  6 34  1  0
  7 35  1  0
  8 36  1  0
  9 37  1  0
  9 38  1  0
 10 39  1  0
 10 40  1  0
 11 41  1  0
 11 42  1  0
 13 43  1  0
 13 44  1  0
 17 45  1  0
 17 46  1  0
 17 47  1  0
 18 48  1  0
 18 49  1  0
 20 50  1  0
 21 51  1  0
 22 52  1  0
 23 53  1  0
 24 54  1  0
 25 55  1  0
 26 56  1  0
 27 57  1  0
 27 58  1  0
 27 59  1  0
 28 60  1  0
 28 61  1  0
M  END
>  <Energy>  (177) 
316.11560380649132

>  <compound_id>  (177) 
272

>  <target_id>  (177) 
1

>  <reference_id>  (177) 
131

>  <inspiration_ids>  (177) 
[200, 131]

>  <energy_score>  (177) 
138.05094851153854

>  <distance_score>  (177) 
2.1480153097674823

>  <path>  (177) 
/opt/xchem-fragalysis-2/maxwin/BulkDock/SCRATCH/505737/C272-P131/C272-P131.minimised.mol

>  <scratch_subdir>  (177) 
/opt/xchem-fragalysis-2/maxwin/BulkDock/SCRATCH/505737/C272-P131

>  <fragmenstein_runtime>  (177) 
8.80371904373169

>  <fragmenstein_outcome>  (177) 
too moved

>  <fragmenstein_mode>  (177) 
expansion

>  <fragmenstein_error>  (177) 


$$$$
C273-P200
     RDKit          3D

 58 60  0  0  0  0  0  0  0  0999 V2000
    8.9165   -2.0236   39.1729 C   0  0  0  0  0  0  0  0  0  0  0  0
    8.6626   -2.8322   37.9157 C   0  0  0  0  0  0  0  0  0  0  0  0
    7.2933   -2.6518   37.5365 O   0  0  0  0  0  0  0  0  0  0  0  0
    6.9378   -3.3329   36.4193 C   0  0  0  0  0  0  0  0  0  0  0  0
    7.6565   -4.0480   35.7409 O   0  0  0  0  0  0  0  0  0  0  0  0
    5.5094   -3.0584   36.1530 C   0  0  0  0  0  0  0  0  0  0  0  0
    4.8933   -3.6183   35.1001 C   0  0  0  0  0  0  0  0  0  0  0  0
    3.4398   -3.3967   34.7572 C   0  0  0  0  0  0  0  0  0  0  0  0
    3.3128   -2.7201   33.3592 C   0  0  0  0  0  0  0  0  0  0  0  0
    2.1031   -3.2215   32.5071 C   0  0  0  0  0  0  0  0  0  0  0  0
    1.6703   -2.1415   31.4834 C   0  0  0  0  0  0  0  0  0  0  0  0
    0.5632   -2.6113   30.5119 C   0  0  0  0  0  0  0  0  0  0  0  0
    0.7103   -4.0771   30.0402 C   0  0  0  0  0  0  0  0  0  0  0  0
   -0.3003   -5.0484   30.7311 C   0  0  0  0  0  0  0  0  0  0  0  0
   -1.1271   -4.6105   31.4762 O   0  0  0  0  0  0  0  0  0  0  0  0
   -0.0183   -6.3956   30.3375 N   0  0  0  0  0  0  0  0  0  0  0  0
   -0.5712   -7.6384   30.7814 C   0  0  0  0  0  0  0  0  0  0  0  0
    2.1671   -4.5012   30.2396 C   0  0  0  0  0  0  0  0  0  0  0  0
    2.5384   -4.5003   31.7230 C   0  0  0  0  0  0  0  0  0  0  0  0
    0.9539   -3.4003   33.5318 C   0  0  0  0  0  0  0  0  0  0  0  0
    1.1577   -4.5479   34.5447 C   0  0  0  0  0  0  0  0  0  0  0  0
    2.6592   -4.7205   34.8731 C   0  0  0  0  0  0  0  0  0  0  0  0
    0.6072   -5.8157   34.0292 N   0  0  0  0  0  0  0  0  0  0  0  0
   -0.1198   -6.3929   35.1416 C   0  0  0  0  0  0  0  0  0  0  0  0
   -0.6911   -5.2421   35.8073 N   0  0  0  0  0  0  0  0  0  0  0  0
    0.3936   -4.2725   35.7704 N   0  0  0  0  0  0  0  0  0  0  0  0
    8.2534   -2.3493   39.9812 H   0  0  0  0  0  0  0  0  0  0  0  0
    9.9538   -2.1299   39.5024 H   0  0  0  0  0  0  0  0  0  0  0  0
    8.7079   -0.9630   38.9977 H   0  0  0  0  0  0  0  0  0  0  0  0
    8.8556   -3.8928   38.1128 H   0  0  0  0  0  0  0  0  0  0  0  0
    9.3186   -2.4810   37.1112 H   0  0  0  0  0  0  0  0  0  0  0  0
    4.9949   -2.3982   36.8408 H   0  0  0  0  0  0  0  0  0  0  0  0
    5.4563   -4.2812   34.4426 H   0  0  0  0  0  0  0  0  0  0  0  0
    3.0086   -2.7023   35.4927 H   0  0  0  0  0  0  0  0  0  0  0  0
    4.2421   -2.8103   32.7811 H   0  0  0  0  0  0  0  0  0  0  0  0
    3.2045   -1.6400   33.5360 H   0  0  0  0  0  0  0  0  0  0  0  0
    1.3276   -1.2334   31.9961 H   0  0  0  0  0  0  0  0  0  0  0  0
    2.5457   -1.8313   30.8964 H   0  0  0  0  0  0  0  0  0  0  0  0
   -0.4197   -2.4209   30.9559 H   0  0  0  0  0  0  0  0  0  0  0  0
    0.6091   -1.9575   29.6306 H   0  0  0  0  0  0  0  0  0  0  0  0
    0.4637   -4.1092   28.9708 H   0  0  0  0  0  0  0  0  0  0  0  0
    0.6982   -6.3871   29.6264 H   0  0  0  0  0  0  0  0  0  0  0  0
   -0.4274   -8.3932   30.0071 H   0  0  0  0  0  0  0  0  0  0  0  0
   -1.6292   -7.4977   31.0081 H   0  0  0  0  0  0  0  0  0  0  0  0
   -0.0603   -7.9280   31.7002 H   0  0  0  0  0  0  0  0  0  0  0  0
    2.3889   -5.4857   29.8165 H   0  0  0  0  0  0  0  0  0  0  0  0
    2.8257   -3.8122   29.6942 H   0  0  0  0  0  0  0  0  0  0  0  0
    2.1315   -5.4099   32.1636 H   0  0  0  0  0  0  0  0  0  0  0  0
    3.6269   -4.6246   31.7744 H   0  0  0  0  0  0  0  0  0  0  0  0
    0.8753   -2.4485   34.0829 H   0  0  0  0  0  0  0  0  0  0  0  0
   -0.0242   -3.4748   33.0596 H   0  0  0  0  0  0  0  0  0  0  0  0
    3.1179   -5.4652   34.2081 H   0  0  0  0  0  0  0  0  0  0  0  0
    2.7814   -5.1419   35.8816 H   0  0  0  0  0  0  0  0  0  0  0  0
   -0.1087   -5.5651   33.3453 H   0  0  0  0  0  0  0  0  0  0  0  0
    0.5536   -6.9458   35.8077 H   0  0  0  0  0  0  0  0  0  0  0  0
   -0.8937   -7.0883   34.8000 H   0  0  0  0  0  0  0  0  0  0  0  0
   -1.4830   -4.9144   35.2374 H   0  0  0  0  0  0  0  0  0  0  0  0
    0.0427   -3.3142   35.7972 H   0  0  0  0  0  0  0  0  0  0  0  0
  1  2  1  0
  2  3  1  0
  3  4  1  0
  4  5  2  0
  4  6  1  0
  6  7  2  3
  7  8  1  0
  8  9  1  0
  9 10  1  0
 10 11  1  0
 11 12  1  0
 12 13  1  0
 13 14  1  0
 14 15  2  0
 14 16  1  0
 16 17  1  0
 13 18  1  0
 18 19  1  0
 10 20  1  0
 20 21  1  0
 21 22  1  0
 21 23  1  0
 23 24  1  0
 24 25  1  0
 25 26  1  0
 22  8  1  0
 19 10  1  0
 26 21  1  0
  1 27  1  0
  1 28  1  0
  1 29  1  0
  2 30  1  0
  2 31  1  0
  6 32  1  0
  7 33  1  0
  8 34  1  0
  9 35  1  0
  9 36  1  0
 11 37  1  0
 11 38  1  0
 12 39  1  0
 12 40  1  0
 13 41  1  0
 16 42  1  0
 17 43  1  0
 17 44  1  0
 17 45  1  0
 18 46  1  0
 18 47  1  0
 19 48  1  0
 19 49  1  0
 20 50  1  0
 20 51  1  0
 22 52  1  0
 22 53  1  0
 23 54  1  0
 24 55  1  0
 24 56  1  0
 25 57  1  0
 26 58  1  0
M  END
>  <Energy>  (178) 
13.056717638717803

>  <compound_id>  (178) 
273

>  <target_id>  (178) 
1

>  <reference_id>  (178) 
200

>  <inspiration_ids>  (178) 
[200, 132]

>  <energy_score>  (178) 
-33.01628275318606

>  <distance_score>  (178) 
2.9754872263507663

>  <path>  (178) 
/opt/xchem-fragalysis-2/maxwin/BulkDock/SCRATCH/505737/C273-P200/C273-P200.minimised.mol

>  <scratch_subdir>  (178) 
/opt/xchem-fragalysis-2/maxwin/BulkDock/SCRATCH/505737/C273-P200

>  <fragmenstein_runtime>  (178) 
7.903528690338135

>  <fragmenstein_outcome>  (178) 
too moved

>  <fragmenstein_mode>  (178) 
expansion

>  <fragmenstein_error>  (178) 


$$$$
C273-P132
     RDKit          3D

 58 60  0  0  0  0  0  0  0  0999 V2000
    9.3910    0.1047   36.6422 C   0  0  0  0  0  0  0  0  0  0  0  0
    9.0892   -0.9786   35.6252 C   0  0  0  0  0  0  0  0  0  0  0  0
    7.6694   -1.1598   35.5724 O   0  0  0  0  0  0  0  0  0  0  0  0
    7.2688   -2.1126   34.6950 C   0  0  0  0  0  0  0  0  0  0  0  0
    7.9847   -2.7924   33.9785 O   0  0  0  0  0  0  0  0  0  0  0  0
    5.7932   -2.1912   34.7488 C   0  0  0  0  0  0  0  0  0  0  0  0
    5.1291   -3.0664   33.9772 C   0  0  0  0  0  0  0  0  0  0  0  0
    3.6318   -3.2141   33.9675 C   0  0  0  0  0  0  0  0  0  0  0  0
    2.9928   -2.9227   32.5660 C   0  0  0  0  0  0  0  0  0  0  0  0
    1.7021   -3.7814   32.2593 C   0  0  0  0  0  0  0  0  0  0  0  0
    0.6989   -3.0746   31.3162 C   0  0  0  0  0  0  0  0  0  0  0  0
   -0.4766   -4.0010   30.9269 C   0  0  0  0  0  0  0  0  0  0  0  0
   -0.0146   -5.3022   30.2547 C   0  0  0  0  0  0  0  0  0  0  0  0
   -0.6667   -6.6525   30.6892 C   0  0  0  0  0  0  0  0  0  0  0  0
   -1.0516   -7.4119   29.8958 O   0  0  0  0  0  0  0  0  0  0  0  0
   -0.6723   -6.7269   32.2220 N   0  0  0  0  0  0  0  0  0  0  0  0
   -1.2349   -7.7031   33.1030 C   0  0  0  0  0  0  0  0  0  0  0  0
    1.4935   -5.4325   30.2282 C   0  0  0  0  0  0  0  0  0  0  0  0
    2.1305   -5.1309   31.5812 C   0  0  0  0  0  0  0  0  0  0  0  0
    0.9989   -3.8891   33.6360 C   0  0  0  0  0  0  0  0  0  0  0  0
    1.7496   -4.7464   34.6614 C   0  0  0  0  0  0  0  0  0  0  0  0
    3.2728   -4.6109   34.4829 C   0  0  0  0  0  0  0  0  0  0  0  0
    1.2961   -6.1312   34.5674 N   0  0  0  0  0  0  0  0  0  0  0  0
    1.6369   -6.6910   35.8574 C   0  0  0  0  0  0  0  0  0  0  0  0
    1.4020   -5.6157   36.8026 N   0  0  0  0  0  0  0  0  0  0  0  0
    1.3496   -4.3796   36.0218 N   0  0  0  0  0  0  0  0  0  0  0  0
    9.0078   -0.1755   37.6290 H   0  0  0  0  0  0  0  0  0  0  0  0
   10.4678    0.2798   36.7180 H   0  0  0  0  0  0  0  0  0  0  0  0
    8.8988    1.0426   36.3641 H   0  0  0  0  0  0  0  0  0  0  0  0
    9.5709   -1.9150   35.9282 H   0  0  0  0  0  0  0  0  0  0  0  0
    9.4601   -0.6745   34.6398 H   0  0  0  0  0  0  0  0  0  0  0  0
    5.2862   -1.5219   35.4334 H   0  0  0  0  0  0  0  0  0  0  0  0
    5.6905   -3.7198   33.3091 H   0  0  0  0  0  0  0  0  0  0  0  0
    3.2119   -2.4797   34.6701 H   0  0  0  0  0  0  0  0  0  0  0  0
    3.7283   -3.0480   31.7612 H   0  0  0  0  0  0  0  0  0  0  0  0
    2.7260   -1.8567   32.5434 H   0  0  0  0  0  0  0  0  0  0  0  0
    1.2128   -2.7299   30.4096 H   0  0  0  0  0  0  0  0  0  0  0  0
    0.2963   -2.1700   31.7896 H   0  0  0  0  0  0  0  0  0  0  0  0
   -1.1399   -4.1873   31.7754 H   0  0  0  0  0  0  0  0  0  0  0  0
   -1.1018   -3.4450   30.2145 H   0  0  0  0  0  0  0  0  0  0  0  0
   -0.3309   -5.1830   29.2144 H   0  0  0  0  0  0  0  0  0  0  0  0
   -0.1856   -5.9311   32.5983 H   0  0  0  0  0  0  0  0  0  0  0  0
   -1.8345   -8.4129   32.5317 H   0  0  0  0  0  0  0  0  0  0  0  0
   -0.4172   -8.2091   33.6062 H   0  0  0  0  0  0  0  0  0  0  0  0
   -1.8377   -7.1903   33.8526 H   0  0  0  0  0  0  0  0  0  0  0  0
    1.7845   -6.4251   29.8801 H   0  0  0  0  0  0  0  0  0  0  0  0
    1.9054   -4.7364   29.4852 H   0  0  0  0  0  0  0  0  0  0  0  0
    3.2123   -5.1175   31.4137 H   0  0  0  0  0  0  0  0  0  0  0  0
    1.9560   -5.9880   32.2296 H   0  0  0  0  0  0  0  0  0  0  0  0
   -0.0398   -4.2232   33.5592 H   0  0  0  0  0  0  0  0  0  0  0  0
    0.8898   -2.8662   34.0334 H   0  0  0  0  0  0  0  0  0  0  0  0
    3.6563   -5.3717   33.7901 H   0  0  0  0  0  0  0  0  0  0  0  0
    3.7961   -4.8079   35.4299 H   0  0  0  0  0  0  0  0  0  0  0  0
    0.2816   -6.0922   34.5887 H   0  0  0  0  0  0  0  0  0  0  0  0
    2.6845   -7.0110   35.8865 H   0  0  0  0  0  0  0  0  0  0  0  0
    1.0203   -7.5671   36.0844 H   0  0  0  0  0  0  0  0  0  0  0  0
    0.5404   -5.7819   37.3247 H   0  0  0  0  0  0  0  0  0  0  0  0
    0.4056   -3.9875   36.0146 H   0  0  0  0  0  0  0  0  0  0  0  0
  1  2  1  0
  2  3  1  0
  3  4  1  0
  4  5  2  0
  4  6  1  0
  6  7  2  3
  7  8  1  0
  8  9  1  0
  9 10  1  0
 10 11  1  0
 11 12  1  0
 12 13  1  0
 13 14  1  0
 14 15  2  0
 14 16  1  0
 16 17  1  0
 13 18  1  0
 18 19  1  0
 10 20  1  0
 20 21  1  0
 21 22  1  0
 21 23  1  0
 23 24  1  0
 24 25  1  0
 25 26  1  0
 22  8  1  0
 19 10  1  0
 26 21  1  0
  1 27  1  0
  1 28  1  0
  1 29  1  0
  2 30  1  0
  2 31  1  0
  6 32  1  0
  7 33  1  0
  8 34  1  0
  9 35  1  0
  9 36  1  0
 11 37  1  0
 11 38  1  0
 12 39  1  0
 12 40  1  0
 13 41  1  0
 16 42  1  0
 17 43  1  0
 17 44  1  0
 17 45  1  0
 18 46  1  0
 18 47  1  0
 19 48  1  0
 19 49  1  0
 20 50  1  0
 20 51  1  0
 22 52  1  0
 22 53  1  0
 23 54  1  0
 24 55  1  0
 24 56  1  0
 25 57  1  0
 26 58  1  0
M  END
>  <Energy>  (179) 
30.846780255723729

>  <compound_id>  (179) 
273

>  <target_id>  (179) 
1

>  <reference_id>  (179) 
132

>  <inspiration_ids>  (179) 
[200, 132]

>  <energy_score>  (179) 
-22.621227845719176

>  <distance_score>  (179) 
2.585395607671064

>  <path>  (179) 
/opt/xchem-fragalysis-2/maxwin/BulkDock/SCRATCH/505737/C273-P132/C273-P132.minimised.mol

>  <scratch_subdir>  (179) 
/opt/xchem-fragalysis-2/maxwin/BulkDock/SCRATCH/505737/C273-P132

>  <fragmenstein_runtime>  (179) 
5.575596570968628

>  <fragmenstein_outcome>  (179) 
too moved

>  <fragmenstein_mode>  (179) 
expansion

>  <fragmenstein_error>  (179) 


$$$$
C275-P200
     RDKit          3D

 72 74  0  0  0  0  0  0  0  0999 V2000
    6.6159   -6.5485   27.0882 C   0  0  0  0  0  0  0  0  0  0  0  0
    5.5806   -6.6515   25.9808 C   0  0  0  0  0  0  0  0  0  0  0  0
    4.5485   -5.6838   26.2059 O   0  0  0  0  0  0  0  0  0  0  0  0
    3.5766   -6.0403   27.0737 C   0  0  0  0  0  0  0  0  0  0  0  0
    3.4299   -7.1138   27.6397 O   0  0  0  0  0  0  0  0  0  0  0  0
    2.7370   -4.8523   27.2912 C   0  0  0  0  0  0  0  0  0  0  0  0
    2.5567   -4.2966   28.4995 C   0  0  0  0  0  0  0  0  0  0  0  0
    3.2119   -4.7280   29.7942 C   0  0  0  0  0  0  0  0  0  0  0  0
    4.6663   -4.2499   29.8139 C   0  0  0  0  0  0  0  0  0  0  0  0
    5.3615   -4.2986   31.1736 C   0  0  0  0  0  0  0  0  0  0  0  0
    4.4474   -4.1498   32.3917 C   0  0  0  0  0  0  0  0  0  0  0  0
    3.1160   -3.4288   32.0822 C   0  0  0  0  0  0  0  0  0  0  0  0
    3.4896   -1.9652   31.6739 C   0  0  0  0  0  0  0  0  0  0  0  0
    2.3825   -1.1180   31.0826 C   0  0  0  0  0  0  0  0  0  0  0  0
    1.2568   -1.5289   31.0684 O   0  0  0  0  0  0  0  0  0  0  0  0
    2.9161    0.1607   30.6966 N   0  0  0  0  0  0  0  0  0  0  0  0
    3.3252    0.1369   29.2242 C   0  0  0  0  0  0  0  0  0  0  0  0
    2.2730   -0.1640   28.1390 C   0  0  0  0  0  0  0  0  0  0  0  0
    1.3194    1.0075   28.0154 C   0  0  0  0  0  0  0  0  0  0  0  0
    0.8876    1.4080   29.4218 C   0  0  0  0  0  0  0  0  0  0  0  0
   -0.2331    0.5907   30.0556 C   0  0  0  0  0  0  0  0  0  0  0  0
   -0.9697   -0.3731   29.3516 C   0  0  0  0  0  0  0  0  0  0  0  0
   -1.8260   -1.2466   30.0247 C   0  0  0  0  0  0  0  0  0  0  0  0
   -1.9945   -1.1578   31.4111 C   0  0  0  0  0  0  0  0  0  0  0  0
   -2.7789   -2.1975   32.1492 C   0  0  0  0  0  0  0  0  0  0  0  0
   -2.2773   -3.4915   31.8314 O   0  0  0  0  0  0  0  0  0  0  0  0
   -1.3688   -0.1217   32.1020 C   0  0  0  0  0  0  0  0  0  0  0  0
   -0.5040    0.7428   31.4299 C   0  0  0  0  0  0  0  0  0  0  0  0
    2.2129    1.4410   30.2549 C   0  0  0  0  0  0  0  0  0  0  0  0
    2.3908   -3.4490   33.3909 N   0  0  0  0  0  0  0  0  0  0  0  0
    0.9709   -3.2149   33.2287 N   0  0  0  0  0  0  0  0  0  0  0  0
    0.3361   -3.1173   34.5368 C   0  0  0  0  0  0  0  0  0  0  0  0
    2.3834   -4.3038   31.0211 C   0  0  0  0  0  0  0  0  0  0  0  0
    6.9799   -5.5204   27.1843 H   0  0  0  0  0  0  0  0  0  0  0  0
    6.1874   -6.8323   28.0545 H   0  0  0  0  0  0  0  0  0  0  0  0
    7.4649   -7.2068   26.8830 H   0  0  0  0  0  0  0  0  0  0  0  0
    6.0437   -6.4141   25.0179 H   0  0  0  0  0  0  0  0  0  0  0  0
    5.1657   -7.6627   25.9053 H   0  0  0  0  0  0  0  0  0  0  0  0
    2.3156   -4.4006   26.4021 H   0  0  0  0  0  0  0  0  0  0  0  0
    1.9340   -3.4034   28.5399 H   0  0  0  0  0  0  0  0  0  0  0  0
    3.2268   -5.8220   29.8063 H   0  0  0  0  0  0  0  0  0  0  0  0
    4.7277   -3.2295   29.4157 H   0  0  0  0  0  0  0  0  0  0  0  0
    5.2615   -4.8434   29.1102 H   0  0  0  0  0  0  0  0  0  0  0  0
    6.1193   -3.5042   31.1956 H   0  0  0  0  0  0  0  0  0  0  0  0
    5.9385   -5.2257   31.2669 H   0  0  0  0  0  0  0  0  0  0  0  0
    4.2381   -5.1442   32.8055 H   0  0  0  0  0  0  0  0  0  0  0  0
    5.0044   -3.6250   33.1808 H   0  0  0  0  0  0  0  0  0  0  0  0
    3.8466   -1.4314   32.5673 H   0  0  0  0  0  0  0  0  0  0  0  0
    4.3316   -1.9370   30.9826 H   0  0  0  0  0  0  0  0  0  0  0  0
    4.0035    0.9638   28.9528 H   0  0  0  0  0  0  0  0  0  0  0  0
    4.0083   -0.7239   29.1668 H   0  0  0  0  0  0  0  0  0  0  0  0
    2.7738   -0.3315   27.1786 H   0  0  0  0  0  0  0  0  0  0  0  0
    1.7270   -1.0815   28.3756 H   0  0  0  0  0  0  0  0  0  0  0  0
    0.4860    0.7941   27.3426 H   0  0  0  0  0  0  0  0  0  0  0  0
    1.8622    1.8471   27.5598 H   0  0  0  0  0  0  0  0  0  0  0  0
    0.5008    2.4351   29.3632 H   0  0  0  0  0  0  0  0  0  0  0  0
   -0.8351   -0.5381   28.2873 H   0  0  0  0  0  0  0  0  0  0  0  0
   -2.3022   -2.0481   29.4620 H   0  0  0  0  0  0  0  0  0  0  0  0
   -2.7113   -2.0629   33.2331 H   0  0  0  0  0  0  0  0  0  0  0  0
   -3.8351   -2.1540   31.8725 H   0  0  0  0  0  0  0  0  0  0  0  0
   -1.3014   -3.4328   31.8985 H   0  0  0  0  0  0  0  0  0  0  0  0
   -1.4897   -0.0194   33.1771 H   0  0  0  0  0  0  0  0  0  0  0  0
    0.0061    1.5019   32.0164 H   0  0  0  0  0  0  0  0  0  0  0  0
    2.9083    2.2242   29.9031 H   0  0  0  0  0  0  0  0  0  0  0  0
    1.9377    1.8615   31.2324 H   0  0  0  0  0  0  0  0  0  0  0  0
    2.8231   -2.7769   34.0311 H   0  0  0  0  0  0  0  0  0  0  0  0
    0.7725   -2.3736   32.6622 H   0  0  0  0  0  0  0  0  0  0  0  0
    0.4963   -4.0270   35.1256 H   0  0  0  0  0  0  0  0  0  0  0  0
   -0.7433   -2.9942   34.4136 H   0  0  0  0  0  0  0  0  0  0  0  0
    0.7103   -2.2560   35.1003 H   0  0  0  0  0  0  0  0  0  0  0  0
    1.4340   -3.8550   30.7108 H   0  0  0  0  0  0  0  0  0  0  0  0
    2.0779   -5.2396   31.5168 H   0  0  0  0  0  0  0  0  0  0  0  0
  1  2  1  0
  2  3  1  0
  3  4  1  0
  4  5  2  0
  4  6  1  0
  6  7  2  3
  7  8  1  0
  8  9  1  0
  9 10  1  0
 10 11  1  0
 11 12  1  0
 12 13  1  0
 13 14  1  0
 14 15  2  0
 14 16  1  0
 16 17  1  0
 17 18  1  0
 18 19  1  0
 19 20  1  0
 20 21  1  0
 21 22  2  0
 22 23  1  0
 23 24  2  0
 24 25  1  0
 25 26  1  0
 24 27  1  0
 27 28  2  0
 20 29  1  0
 12 30  1  0
 30 31  1  0
 31 32  1  0
 12 33  1  0
 33  8  1  0
 29 16  1  0
 28 21  1  0
  1 34  1  0
  1 35  1  0
  1 36  1  0
  2 37  1  0
  2 38  1  0
  6 39  1  0
  7 40  1  0
  8 41  1  0
  9 42  1  0
  9 43  1  0
 10 44  1  0
 10 45  1  0
 11 46  1  0
 11 47  1  0
 13 48  1  0
 13 49  1  0
 17 50  1  0
 17 51  1  0
 18 52  1  0
 18 53  1  0
 19 54  1  0
 19 55  1  0
 20 56  1  0
 22 57  1  0
 23 58  1  0
 25 59  1  0
 25 60  1  0
 26 61  1  0
 27 62  1  0
 28 63  1  0
 29 64  1  0
 29 65  1  0
 30 66  1  0
 31 67  1  0
 32 68  1  0
 32 69  1  0
 32 70  1  0
 33 71  1  0
 33 72  1  0
M  END
>  <Energy>  (180) 
177.42481187251693

>  <compound_id>  (180) 
275

>  <target_id>  (180) 
1

>  <reference_id>  (180) 
200

>  <inspiration_ids>  (180) 
[200, 134]

>  <energy_score>  (180) 
18.78332856862596

>  <distance_score>  (180) 
4.394443360762284

>  <path>  (180) 
/opt/xchem-fragalysis-2/maxwin/BulkDock/SCRATCH/505737/C275-P200/C275-P200.minimised.mol

>  <scratch_subdir>  (180) 
/opt/xchem-fragalysis-2/maxwin/BulkDock/SCRATCH/505737/C275-P200

>  <fragmenstein_runtime>  (180) 
18.772222757339478

>  <fragmenstein_outcome>  (180) 
too moved

>  <fragmenstein_mode>  (180) 
expansion

>  <fragmenstein_error>  (180) 


$$$$
C275-P134
     RDKit          3D

 72 74  0  0  0  0  0  0  0  0999 V2000
    6.6350   -6.3084   28.2677 C   0  0  0  0  0  0  0  0  0  0  0  0
    5.7909   -6.4020   27.0096 C   0  0  0  0  0  0  0  0  0  0  0  0
    4.8561   -5.3167   26.9997 O   0  0  0  0  0  0  0  0  0  0  0  0
    3.6924   -5.5148   27.6643 C   0  0  0  0  0  0  0  0  0  0  0  0
    3.2952   -6.5516   28.1696 O   0  0  0  0  0  0  0  0  0  0  0  0
    3.0140   -4.2036   27.6912 C   0  0  0  0  0  0  0  0  0  0  0  0
    2.1647   -3.7548   28.6274 C   0  0  0  0  0  0  0  0  0  0  0  0
    1.6726   -4.4347   29.8855 C   0  0  0  0  0  0  0  0  0  0  0  0
    2.6322   -4.1413   31.0341 C   0  0  0  0  0  0  0  0  0  0  0  0
    2.1294   -4.6680   32.3858 C   0  0  0  0  0  0  0  0  0  0  0  0
    0.6032   -4.7586   32.5088 C   0  0  0  0  0  0  0  0  0  0  0  0
   -0.1199   -3.6641   31.6776 C   0  0  0  0  0  0  0  0  0  0  0  0
    0.3688   -2.2957   32.1975 C   0  0  0  0  0  0  0  0  0  0  0  0
   -0.1538   -0.9204   31.8202 C   0  0  0  0  0  0  0  0  0  0  0  0
   -0.4753   -0.1914   32.7261 O   0  0  0  0  0  0  0  0  0  0  0  0
   -0.0849   -0.6798   30.4258 N   0  0  0  0  0  0  0  0  0  0  0  0
   -1.4395   -1.0396   29.7477 C   0  0  0  0  0  0  0  0  0  0  0  0
   -1.5119   -1.1750   28.2031 C   0  0  0  0  0  0  0  0  0  0  0  0
   -1.2257    0.1650   27.5430 C   0  0  0  0  0  0  0  0  0  0  0  0
    0.0899    0.5453   28.1629 C   0  0  0  0  0  0  0  0  0  0  0  0
    0.7286    1.9029   27.9122 C   0  0  0  0  0  0  0  0  0  0  0  0
   -0.0556    3.0374   28.1284 C   0  0  0  0  0  0  0  0  0  0  0  0
    0.3905    3.9476   29.0795 C   0  0  0  0  0  0  0  0  0  0  0  0
    1.6188    3.7498   29.7231 C   0  0  0  0  0  0  0  0  0  0  0  0
    1.8748    4.3354   31.0838 C   0  0  0  0  0  0  0  0  0  0  0  0
    1.7641    3.3050   32.0707 O   0  0  0  0  0  0  0  0  0  0  0  0
    2.5297    2.8344   29.1913 C   0  0  0  0  0  0  0  0  0  0  0  0
    2.0998    1.9332   28.2291 C   0  0  0  0  0  0  0  0  0  0  0  0
   -0.2731    0.5432   29.6646 C   0  0  0  0  0  0  0  0  0  0  0  0
   -1.5963   -3.8355   31.8314 N   0  0  0  0  0  0  0  0  0  0  0  0
   -2.0645   -3.1049   32.9879 N   0  0  0  0  0  0  0  0  0  0  0  0
   -3.1938   -2.2339   32.6746 C   0  0  0  0  0  0  0  0  0  0  0  0
    0.2195   -4.0020   30.1957 C   0  0  0  0  0  0  0  0  0  0  0  0
    7.1442   -5.3403   28.3180 H   0  0  0  0  0  0  0  0  0  0  0  0
    6.0139   -6.3876   29.1645 H   0  0  0  0  0  0  0  0  0  0  0  0
    7.3855   -7.1035   28.2904 H   0  0  0  0  0  0  0  0  0  0  0  0
    6.4257   -6.2944   26.1243 H   0  0  0  0  0  0  0  0  0  0  0  0
    5.2812   -7.3674   26.9321 H   0  0  0  0  0  0  0  0  0  0  0  0
    3.3076   -3.5299   26.8906 H   0  0  0  0  0  0  0  0  0  0  0  0
    1.8245   -2.7240   28.5017 H   0  0  0  0  0  0  0  0  0  0  0  0
    1.6562   -5.5195   29.7293 H   0  0  0  0  0  0  0  0  0  0  0  0
    2.8317   -3.0661   31.0922 H   0  0  0  0  0  0  0  0  0  0  0  0
    3.6266   -4.5374   30.8157 H   0  0  0  0  0  0  0  0  0  0  0  0
    2.5283   -4.0248   33.1802 H   0  0  0  0  0  0  0  0  0  0  0  0
    2.5339   -5.6619   32.5893 H   0  0  0  0  0  0  0  0  0  0  0  0
    0.2877   -5.7551   32.1674 H   0  0  0  0  0  0  0  0  0  0  0  0
    0.3266   -4.7054   33.5697 H   0  0  0  0  0  0  0  0  0  0  0  0
    0.3163   -2.3221   33.2992 H   0  0  0  0  0  0  0  0  0  0  0  0
    1.4370   -2.1691   32.0258 H   0  0  0  0  0  0  0  0  0  0  0  0
   -1.7059   -2.0271   30.1229 H   0  0  0  0  0  0  0  0  0  0  0  0
   -2.2658   -0.4265   30.1480 H   0  0  0  0  0  0  0  0  0  0  0  0
   -0.7757   -1.9173   27.8820 H   0  0  0  0  0  0  0  0  0  0  0  0
   -2.4866   -1.5415   27.8845 H   0  0  0  0  0  0  0  0  0  0  0  0
   -2.0170    0.8865   27.7754 H   0  0  0  0  0  0  0  0  0  0  0  0
   -1.1951    0.1055   26.4656 H   0  0  0  0  0  0  0  0  0  0  0  0
    0.8360   -0.2306   27.9384 H   0  0  0  0  0  0  0  0  0  0  0  0
   -1.0997    3.0810   27.8238 H   0  0  0  0  0  0  0  0  0  0  0  0
   -0.2885    4.7248   29.4200 H   0  0  0  0  0  0  0  0  0  0  0  0
    2.8791    4.7672   31.1386 H   0  0  0  0  0  0  0  0  0  0  0  0
    1.1545    5.1234   31.3256 H   0  0  0  0  0  0  0  0  0  0  0  0
    1.0797    2.6839   31.7678 H   0  0  0  0  0  0  0  0  0  0  0  0
    3.5097    2.7081   29.6467 H   0  0  0  0  0  0  0  0  0  0  0  0
    2.7419    1.0840   28.0025 H   0  0  0  0  0  0  0  0  0  0  0  0
    0.4828    1.1457   30.1871 H   0  0  0  0  0  0  0  0  0  0  0  0
   -1.1614    1.1367   29.9241 H   0  0  0  0  0  0  0  0  0  0  0  0
   -1.7321   -4.8439   31.9590 H   0  0  0  0  0  0  0  0  0  0  0  0
   -2.3453   -3.7182   33.7729 H   0  0  0  0  0  0  0  0  0  0  0  0
   -2.9078   -1.4064   32.0278 H   0  0  0  0  0  0  0  0  0  0  0  0
   -3.5662   -1.7870   33.6024 H   0  0  0  0  0  0  0  0  0  0  0  0
   -4.0263   -2.7702   32.2106 H   0  0  0  0  0  0  0  0  0  0  0  0
   -0.0737   -3.1872   29.5415 H   0  0  0  0  0  0  0  0  0  0  0  0
   -0.4133   -4.8413   29.8722 H   0  0  0  0  0  0  0  0  0  0  0  0
  1  2  1  0
  2  3  1  0
  3  4  1  0
  4  5  2  0
  4  6  1  0
  6  7  2  3
  7  8  1  0
  8  9  1  0
  9 10  1  0
 10 11  1  0
 11 12  1  0
 12 13  1  0
 13 14  1  0
 14 15  2  0
 14 16  1  0
 16 17  1  0
 17 18  1  0
 18 19  1  0
 19 20  1  0
 20 21  1  0
 21 22  2  0
 22 23  1  0
 23 24  2  0
 24 25  1  0
 25 26  1  0
 24 27  1  0
 27 28  2  0
 20 29  1  0
 12 30  1  0
 30 31  1  0
 31 32  1  0
 12 33  1  0
 33  8  1  0
 29 16  1  0
 28 21  1  0
  1 34  1  0
  1 35  1  0
  1 36  1  0
  2 37  1  0
  2 38  1  0
  6 39  1  0
  7 40  1  0
  8 41  1  0
  9 42  1  0
  9 43  1  0
 10 44  1  0
 10 45  1  0
 11 46  1  0
 11 47  1  0
 13 48  1  0
 13 49  1  0
 17 50  1  0
 17 51  1  0
 18 52  1  0
 18 53  1  0
 19 54  1  0
 19 55  1  0
 20 56  1  0
 22 57  1  0
 23 58  1  0
 25 59  1  0
 25 60  1  0
 26 61  1  0
 27 62  1  0
 28 63  1  0
 29 64  1  0
 29 65  1  0
 30 66  1  0
 31 67  1  0
 32 68  1  0
 32 69  1  0
 32 70  1  0
 33 71  1  0
 33 72  1  0
M  END
>  <Energy>  (181) 
217.93346906755164

>  <compound_id>  (181) 
275

>  <target_id>  (181) 
1

>  <reference_id>  (181) 
134

>  <inspiration_ids>  (181) 
[200, 134]

>  <energy_score>  (181) 
59.291985763663035

>  <distance_score>  (181) 
4.333558547954629

>  <path>  (181) 
/opt/xchem-fragalysis-2/maxwin/BulkDock/SCRATCH/505737/C275-P134/C275-P134.minimised.mol

>  <scratch_subdir>  (181) 
/opt/xchem-fragalysis-2/maxwin/BulkDock/SCRATCH/505737/C275-P134

>  <fragmenstein_runtime>  (181) 
16.450518369674683

>  <fragmenstein_outcome>  (181) 
too moved

>  <fragmenstein_mode>  (181) 
expansion

>  <fragmenstein_error>  (181) 


$$$$
C277-P200
     RDKit          3D

 58 61  0  0  0  0  0  0  0  0999 V2000
    5.5262   -3.5524   28.8365 C   0  0  0  0  0  0  0  0  0  0  0  0
    4.6837   -3.8029   27.5955 C   0  0  0  0  0  0  0  0  0  0  0  0
    4.4066   -5.2120   27.4537 O   0  0  0  0  0  0  0  0  0  0  0  0
    3.3699   -5.8653   28.0222 C   0  0  0  0  0  0  0  0  0  0  0  0
    3.1678   -7.0595   27.8020 O   0  0  0  0  0  0  0  0  0  0  0  0
    2.5417   -5.1265   29.0006 C   0  0  0  0  0  0  0  0  0  0  0  0
    1.5024   -5.7540   29.5725 C   0  0  0  0  0  0  0  0  0  0  0  0
    0.6378   -5.2904   30.7319 C   0  0  0  0  0  0  0  0  0  0  0  0
    1.1463   -4.0869   31.5351 C   0  0  0  0  0  0  0  0  0  0  0  0
    2.1350   -4.5069   32.6286 C   0  0  0  0  0  0  0  0  0  0  0  0
    1.5378   -5.4100   33.7744 C   0  0  0  0  0  0  0  0  0  0  0  0
    1.1801   -4.5056   35.0157 C   0  0  0  0  0  0  0  0  0  0  0  0
    2.3683   -4.3161   35.9642 C   0  0  0  0  0  0  0  0  0  0  0  0
    3.0290   -5.6748   36.1838 C   0  0  0  0  0  0  0  0  0  0  0  0
    2.5775   -6.5657   37.3309 C   0  0  0  0  0  0  0  0  0  0  0  0
    1.2727   -6.5852   37.8409 C   0  0  0  0  0  0  0  0  0  0  0  0
    0.9397   -7.3587   38.9618 C   0  0  0  0  0  0  0  0  0  0  0  0
    1.9029   -8.1273   39.6046 C   0  0  0  0  0  0  0  0  0  0  0  0
    3.2067   -8.1211   39.1271 C   0  0  0  0  0  0  0  0  0  0  0  0
    3.5379   -7.3540   38.0020 C   0  0  0  0  0  0  0  0  0  0  0  0
    2.9403   -6.4138   34.5437 S   0  0  0  0  0  0  0  0  0  0  0  0
    4.1761   -5.9621   33.9168 O   0  0  0  0  0  0  0  0  0  0  0  0
    2.6725   -7.8359   34.6124 O   0  0  0  0  0  0  0  0  0  0  0  0
    0.3277   -6.2690   33.1656 C   0  0  0  0  0  0  0  0  0  0  0  0
    0.4538   -6.5150   31.6453 C   0  0  0  0  0  0  0  0  0  0  0  0
    0.0604   -7.5744   33.7640 N   0  0  0  0  0  0  0  0  0  0  0  0
   -1.0040   -7.4275   34.7320 C   0  0  0  0  0  0  0  0  0  0  0  0
   -1.2846   -6.0268   34.6917 N   0  0  0  0  0  0  0  0  0  0  0  0
   -0.9553   -5.6053   33.3632 N   0  0  0  0  0  0  0  0  0  0  0  0
    6.4635   -4.1157   28.7759 H   0  0  0  0  0  0  0  0  0  0  0  0
    5.7636   -2.4891   28.9320 H   0  0  0  0  0  0  0  0  0  0  0  0
    5.0240   -3.8823   29.7498 H   0  0  0  0  0  0  0  0  0  0  0  0
    5.2503   -3.5051   26.7067 H   0  0  0  0  0  0  0  0  0  0  0  0
    3.7602   -3.2155   27.5892 H   0  0  0  0  0  0  0  0  0  0  0  0
    2.8224   -4.1303   29.2944 H   0  0  0  0  0  0  0  0  0  0  0  0
    1.2744   -6.7633   29.2379 H   0  0  0  0  0  0  0  0  0  0  0  0
   -0.3356   -5.0167   30.3070 H   0  0  0  0  0  0  0  0  0  0  0  0
    0.3034   -3.5605   31.9963 H   0  0  0  0  0  0  0  0  0  0  0  0
    1.6105   -3.3382   30.8849 H   0  0  0  0  0  0  0  0  0  0  0  0
    2.5924   -3.6085   33.0605 H   0  0  0  0  0  0  0  0  0  0  0  0
    2.9483   -5.0366   32.1210 H   0  0  0  0  0  0  0  0  0  0  0  0
    0.4045   -4.9391   35.6341 H   0  0  0  0  0  0  0  0  0  0  0  0
    0.7983   -3.5311   34.6887 H   0  0  0  0  0  0  0  0  0  0  0  0
    2.0594   -3.8476   36.9047 H   0  0  0  0  0  0  0  0  0  0  0  0
    3.0837   -3.6337   35.4875 H   0  0  0  0  0  0  0  0  0  0  0  0
    4.0941   -5.4691   36.3606 H   0  0  0  0  0  0  0  0  0  0  0  0
    0.4786   -5.9929   37.4013 H   0  0  0  0  0  0  0  0  0  0  0  0
   -0.0793   -7.3620   39.3375 H   0  0  0  0  0  0  0  0  0  0  0  0
    1.6320   -8.7457   40.4568 H   0  0  0  0  0  0  0  0  0  0  0  0
    3.9649   -8.7274   39.6156 H   0  0  0  0  0  0  0  0  0  0  0  0
    4.5695   -7.3761   37.6529 H   0  0  0  0  0  0  0  0  0  0  0  0
   -0.4098   -7.0825   31.2625 H   0  0  0  0  0  0  0  0  0  0  0  0
    1.3034   -7.1786   31.5246 H   0  0  0  0  0  0  0  0  0  0  0  0
   -0.3241   -8.1965   33.0584 H   0  0  0  0  0  0  0  0  0  0  0  0
   -1.8872   -8.0035   34.4384 H   0  0  0  0  0  0  0  0  0  0  0  0
   -0.6881   -7.7528   35.7262 H   0  0  0  0  0  0  0  0  0  0  0  0
   -2.2119   -5.7611   35.0053 H   0  0  0  0  0  0  0  0  0  0  0  0
   -0.8839   -4.5879   33.3242 H   0  0  0  0  0  0  0  0  0  0  0  0
  1  2  1  0
  2  3  1  0
  3  4  1  0
  4  5  2  0
  4  6  1  0
  6  7  2  3
  7  8  1  0
  8  9  1  0
  9 10  1  0
 10 11  1  0
 11 12  1  0
 12 13  1  0
 13 14  1  0
 14 15  1  0
 15 16  2  0
 16 17  1  0
 17 18  2  0
 18 19  1  0
 19 20  2  0
 14 21  1  0
 21 22  2  0
 21 23  2  0
 11 24  1  0
 24 25  1  0
 24 26  1  0
 26 27  1  0
 27 28  1  0
 28 29  1  0
 25  8  1  0
 21 11  1  0
 29 24  1  0
 20 15  1  0
  1 30  1  0
  1 31  1  0
  1 32  1  0
  2 33  1  0
  2 34  1  0
  6 35  1  0
  7 36  1  0
  8 37  1  0
  9 38  1  0
  9 39  1  0
 10 40  1  0
 10 41  1  0
 12 42  1  0
 12 43  1  0
 13 44  1  0
 13 45  1  0
 14 46  1  0
 16 47  1  0
 17 48  1  0
 18 49  1  0
 19 50  1  0
 20 51  1  0
 25 52  1  0
 25 53  1  0
 26 54  1  0
 27 55  1  0
 27 56  1  0
 28 57  1  0
 29 58  1  0
M  END
>  <Energy>  (182) 
103.65958929574035

>  <compound_id>  (182) 
277

>  <target_id>  (182) 
1

>  <reference_id>  (182) 
200

>  <inspiration_ids>  (182) 
[200, 140]

>  <energy_score>  (182) 
-29.828299429989954

>  <distance_score>  (182) 
1.5230137594369746

>  <path>  (182) 
/opt/xchem-fragalysis-2/maxwin/BulkDock/SCRATCH/505737/C277-P200/C277-P200.minimised.mol

>  <scratch_subdir>  (182) 
/opt/xchem-fragalysis-2/maxwin/BulkDock/SCRATCH/505737/C277-P200

>  <fragmenstein_runtime>  (182) 
11.412048101425171

>  <fragmenstein_outcome>  (182) 
too moved

>  <fragmenstein_mode>  (182) 
expansion

>  <fragmenstein_error>  (182) 


$$$$
C277-P140
     RDKit          3D

 58 61  0  0  0  0  0  0  0  0999 V2000
    5.9155   -2.7770   29.7654 C   0  0  0  0  0  0  0  0  0  0  0  0
    5.3205   -2.7452   28.3727 C   0  0  0  0  0  0  0  0  0  0  0  0
    4.4554   -3.8756   28.2344 O   0  0  0  0  0  0  0  0  0  0  0  0
    3.1861   -3.6915   28.6765 C   0  0  0  0  0  0  0  0  0  0  0  0
    2.6641   -2.6427   28.9931 O   0  0  0  0  0  0  0  0  0  0  0  0
    2.5831   -5.0362   28.7163 C   0  0  0  0  0  0  0  0  0  0  0  0
    1.6225   -5.5567   29.4933 C   0  0  0  0  0  0  0  0  0  0  0  0
    0.7598   -5.0917   30.6591 C   0  0  0  0  0  0  0  0  0  0  0  0
    1.1707   -3.8764   31.4934 C   0  0  0  0  0  0  0  0  0  0  0  0
    2.0916   -4.2432   32.6588 C   0  0  0  0  0  0  0  0  0  0  0  0
    1.4648   -5.1865   33.7541 C   0  0  0  0  0  0  0  0  0  0  0  0
    0.9906   -4.3482   34.9917 C   0  0  0  0  0  0  0  0  0  0  0  0
    2.1344   -4.1058   35.9851 C   0  0  0  0  0  0  0  0  0  0  0  0
    2.8869   -5.4173   36.2102 C   0  0  0  0  0  0  0  0  0  0  0  0
    2.4777   -6.3449   37.3445 C   0  0  0  0  0  0  0  0  0  0  0  0
    1.2167   -6.3098   37.9567 C   0  0  0  0  0  0  0  0  0  0  0  0
    0.9189   -7.1190   39.0617 C   0  0  0  0  0  0  0  0  0  0  0  0
    1.8821   -7.9664   39.5968 C   0  0  0  0  0  0  0  0  0  0  0  0
    3.1474   -8.0062   39.0250 C   0  0  0  0  0  0  0  0  0  0  0  0
    3.4393   -7.2102   37.9089 C   0  0  0  0  0  0  0  0  0  0  0  0
    2.8797   -6.1566   34.5648 S   0  0  0  0  0  0  0  0  0  0  0  0
    4.1262   -5.6853   33.9789 O   0  0  0  0  0  0  0  0  0  0  0  0
    2.6383   -7.5830   34.6254 O   0  0  0  0  0  0  0  0  0  0  0  0
    0.3239   -6.0661   33.0773 C   0  0  0  0  0  0  0  0  0  0  0  0
    0.5977   -6.3212   31.5815 C   0  0  0  0  0  0  0  0  0  0  0  0
    0.0297   -7.3581   33.6702 N   0  0  0  0  0  0  0  0  0  0  0  0
   -0.8764   -7.1105   34.7528 C   0  0  0  0  0  0  0  0  0  0  0  0
   -1.6835   -6.0549   34.2244 N   0  0  0  0  0  0  0  0  0  0  0  0
   -0.9914   -5.4404   33.1203 N   0  0  0  0  0  0  0  0  0  0  0  0
    6.4238   -3.7298   29.9478 H   0  0  0  0  0  0  0  0  0  0  0  0
    6.6350   -1.9640   29.8973 H   0  0  0  0  0  0  0  0  0  0  0  0
    5.1378   -2.6801   30.5300 H   0  0  0  0  0  0  0  0  0  0  0  0
    6.1127   -2.8457   27.6239 H   0  0  0  0  0  0  0  0  0  0  0  0
    4.7982   -1.8028   28.1735 H   0  0  0  0  0  0  0  0  0  0  0  0
    3.0242   -5.6940   27.9686 H   0  0  0  0  0  0  0  0  0  0  0  0
    1.4115   -6.5981   29.2598 H   0  0  0  0  0  0  0  0  0  0  0  0
   -0.2227   -4.8622   30.2258 H   0  0  0  0  0  0  0  0  0  0  0  0
    0.2772   -3.3823   31.8922 H   0  0  0  0  0  0  0  0  0  0  0  0
    1.6469   -3.1077   30.8933 H   0  0  0  0  0  0  0  0  0  0  0  0
    2.4622   -3.3231   33.1262 H   0  0  0  0  0  0  0  0  0  0  0  0
    2.9678   -4.7179   32.2039 H   0  0  0  0  0  0  0  0  0  0  0  0
    0.1963   -4.8411   35.5449 H   0  0  0  0  0  0  0  0  0  0  0  0
    0.5727   -3.3876   34.6668 H   0  0  0  0  0  0  0  0  0  0  0  0
    1.7674   -3.6666   36.9187 H   0  0  0  0  0  0  0  0  0  0  0  0
    2.8190   -3.3705   35.5423 H   0  0  0  0  0  0  0  0  0  0  0  0
    3.9309   -5.1398   36.4132 H   0  0  0  0  0  0  0  0  0  0  0  0
    0.4373   -5.6377   37.6126 H   0  0  0  0  0  0  0  0  0  0  0  0
   -0.0686   -7.0857   39.5138 H   0  0  0  0  0  0  0  0  0  0  0  0
    1.6388   -8.6102   40.4387 H   0  0  0  0  0  0  0  0  0  0  0  0
    3.9035   -8.6726   39.4317 H   0  0  0  0  0  0  0  0  0  0  0  0
    4.4402   -7.2691   37.4830 H   0  0  0  0  0  0  0  0  0  0  0  0
   -0.1632   -6.9800   31.1343 H   0  0  0  0  0  0  0  0  0  0  0  0
    1.5224   -6.8793   31.5637 H   0  0  0  0  0  0  0  0  0  0  0  0
   -0.5511   -7.8693   33.0065 H   0  0  0  0  0  0  0  0  0  0  0  0
   -1.5056   -7.9589   35.0096 H   0  0  0  0  0  0  0  0  0  0  0  0
   -0.3428   -6.8338   35.6616 H   0  0  0  0  0  0  0  0  0  0  0  0
   -1.9690   -5.3848   34.9448 H   0  0  0  0  0  0  0  0  0  0  0  0
   -0.9533   -4.4241   33.2145 H   0  0  0  0  0  0  0  0  0  0  0  0
  1  2  1  0
  2  3  1  0
  3  4  1  0
  4  5  2  0
  4  6  1  0
  6  7  2  3
  7  8  1  0
  8  9  1  0
  9 10  1  0
 10 11  1  0
 11 12  1  0
 12 13  1  0
 13 14  1  0
 14 15  1  0
 15 16  2  0
 16 17  1  0
 17 18  2  0
 18 19  1  0
 19 20  2  0
 14 21  1  0
 21 22  2  0
 21 23  2  0
 11 24  1  0
 24 25  1  0
 24 26  1  0
 26 27  1  0
 27 28  1  0
 28 29  1  0
 25  8  1  0
 21 11  1  0
 29 24  1  0
 20 15  1  0
  1 30  1  0
  1 31  1  0
  1 32  1  0
  2 33  1  0
  2 34  1  0
  6 35  1  0
  7 36  1  0
  8 37  1  0
  9 38  1  0
  9 39  1  0
 10 40  1  0
 10 41  1  0
 12 42  1  0
 12 43  1  0
 13 44  1  0
 13 45  1  0
 14 46  1  0
 16 47  1  0
 17 48  1  0
 18 49  1  0
 19 50  1  0
 20 51  1  0
 25 52  1  0
 25 53  1  0
 26 54  1  0
 27 55  1  0
 27 56  1  0
 28 57  1  0
 29 58  1  0
M  END
>  <Energy>  (183) 
94.819986381189921

>  <compound_id>  (183) 
277

>  <target_id>  (183) 
1

>  <reference_id>  (183) 
140

>  <inspiration_ids>  (183) 
[200, 140]

>  <energy_score>  (183) 
-38.66790234454079

>  <distance_score>  (183) 
1.7946893061364853

>  <path>  (183) 
/opt/xchem-fragalysis-2/maxwin/BulkDock/SCRATCH/505737/C277-P140/C277-P140.minimised.mol

>  <scratch_subdir>  (183) 
/opt/xchem-fragalysis-2/maxwin/BulkDock/SCRATCH/505737/C277-P140

>  <fragmenstein_runtime>  (183) 
11.255261898040771

>  <fragmenstein_outcome>  (183) 
too moved

>  <fragmenstein_mode>  (183) 
expansion

>  <fragmenstein_error>  (183) 


$$$$
C278-P200
     RDKit          3D

 62 65  0  0  0  0  0  0  0  0999 V2000
    6.5159   -2.7500   28.2571 C   0  0  0  0  0  0  0  0  0  0  0  0
    5.1231   -2.9160   28.8047 C   0  0  0  0  0  0  0  0  0  0  0  0
    4.4149   -3.9630   28.1328 O   0  0  0  0  0  0  0  0  0  0  0  0
    4.7490   -5.2157   28.5018 C   0  0  0  0  0  0  0  0  0  0  0  0
    5.6997   -5.5715   29.1796 O   0  0  0  0  0  0  0  0  0  0  0  0
    3.7274   -6.1612   28.0379 C   0  0  0  0  0  0  0  0  0  0  0  0
    2.5031   -6.3212   28.5771 C   0  0  0  0  0  0  0  0  0  0  0  0
    1.7574   -5.5466   29.6702 C   0  0  0  0  0  0  0  0  0  0  0  0
    2.5978   -4.5808   30.5064 C   0  0  0  0  0  0  0  0  0  0  0  0
    2.2074   -4.2073   31.9107 C   0  0  0  0  0  0  0  0  0  0  0  0
    1.2694   -4.8863   32.5929 C   0  0  0  0  0  0  0  0  0  0  0  0
    0.9628   -4.7176   34.0734 C   0  0  0  0  0  0  0  0  0  0  0  0
    2.0147   -4.1240   35.0339 C   0  0  0  0  0  0  0  0  0  0  0  0
    1.8732   -2.6135   35.2691 C   0  0  0  0  0  0  0  0  0  0  0  0
    2.5169   -1.7077   34.2163 C   0  0  0  0  0  0  0  0  0  0  0  0
    2.0852   -2.0150   32.8497 N   0  0  0  0  0  0  0  0  0  0  0  0
    2.8826   -3.1022   32.4097 N   0  0  0  0  0  0  0  0  0  0  0  0
    0.3344   -5.8337   31.8805 C   0  0  0  0  0  0  0  0  0  0  0  0
   -0.9985   -5.0939   31.7572 C   0  0  0  0  0  0  0  0  0  0  0  0
   -0.9098   -3.9916   30.7421 C   0  0  0  0  0  0  0  0  0  0  0  0
   -0.8402   -4.2184   29.4532 N   0  0  0  0  0  0  0  0  0  0  0  0
   -0.6025   -3.0591   28.8124 N   0  0  0  0  0  0  0  0  0  0  0  0
   -0.6693   -2.0818   29.6819 C   0  0  0  0  0  0  0  0  0  0  0  0
   -0.7459   -0.6905   29.2844 C   0  0  0  0  0  0  0  0  0  0  0  0
    0.1349    0.2930   29.7257 C   0  0  0  0  0  0  0  0  0  0  0  0
    0.0447    1.5867   29.1970 C   0  0  0  0  0  0  0  0  0  0  0  0
   -0.9254    1.9028   28.2420 C   0  0  0  0  0  0  0  0  0  0  0  0
   -1.8042    0.9254   27.7984 C   0  0  0  0  0  0  0  0  0  0  0  0
   -1.7049   -0.3638   28.3133 C   0  0  0  0  0  0  0  0  0  0  0  0
   -0.8271   -2.6335   30.9346 N   0  0  0  0  0  0  0  0  0  0  0  0
    0.7826   -6.4066   30.5139 C   0  0  0  0  0  0  0  0  0  0  0  0
    6.4875   -2.5983   27.1727 H   0  0  0  0  0  0  0  0  0  0  0  0
    7.1366   -3.6326   28.4352 H   0  0  0  0  0  0  0  0  0  0  0  0
    7.0114   -1.8894   28.7162 H   0  0  0  0  0  0  0  0  0  0  0  0
    5.1501   -3.1014   29.8846 H   0  0  0  0  0  0  0  0  0  0  0  0
    4.5516   -1.9947   28.6509 H   0  0  0  0  0  0  0  0  0  0  0  0
    4.0722   -6.7947   27.2269 H   0  0  0  0  0  0  0  0  0  0  0  0
    1.9260   -7.1154   28.1255 H   0  0  0  0  0  0  0  0  0  0  0  0
    1.1504   -4.8986   29.0427 H   0  0  0  0  0  0  0  0  0  0  0  0
    2.6749   -3.6475   29.9339 H   0  0  0  0  0  0  0  0  0  0  0  0
    3.6061   -4.9815   30.6238 H   0  0  0  0  0  0  0  0  0  0  0  0
    0.0243   -4.1674   34.1999 H   0  0  0  0  0  0  0  0  0  0  0  0
    0.7688   -5.7288   34.4595 H   0  0  0  0  0  0  0  0  0  0  0  0
    1.8502   -4.6012   36.0101 H   0  0  0  0  0  0  0  0  0  0  0  0
    3.0363   -4.3944   34.7440 H   0  0  0  0  0  0  0  0  0  0  0  0
    0.8120   -2.3551   35.3762 H   0  0  0  0  0  0  0  0  0  0  0  0
    2.3394   -2.3734   36.2335 H   0  0  0  0  0  0  0  0  0  0  0  0
    2.2270   -0.6732   34.4350 H   0  0  0  0  0  0  0  0  0  0  0  0
    3.6111   -1.7373   34.3028 H   0  0  0  0  0  0  0  0  0  0  0  0
    1.1041   -2.2848   32.8863 H   0  0  0  0  0  0  0  0  0  0  0  0
    3.6421   -2.7980   31.7919 H   0  0  0  0  0  0  0  0  0  0  0  0
    0.1664   -6.7035   32.5316 H   0  0  0  0  0  0  0  0  0  0  0  0
   -1.7159   -5.8493   31.4461 H   0  0  0  0  0  0  0  0  0  0  0  0
   -1.3648   -4.6974   32.7069 H   0  0  0  0  0  0  0  0  0  0  0  0
    0.9173    0.0581   30.4425 H   0  0  0  0  0  0  0  0  0  0  0  0
    0.7353    2.3577   29.5315 H   0  0  0  0  0  0  0  0  0  0  0  0
   -0.9992    2.9169   27.8554 H   0  0  0  0  0  0  0  0  0  0  0  0
   -2.5628    1.1668   27.0586 H   0  0  0  0  0  0  0  0  0  0  0  0
   -2.3742   -1.1383   27.9391 H   0  0  0  0  0  0  0  0  0  0  0  0
   -0.9110   -2.1276   31.8017 H   0  0  0  0  0  0  0  0  0  0  0  0
    1.1753   -7.3929   30.7179 H   0  0  0  0  0  0  0  0  0  0  0  0
   -0.1004   -6.6470   29.9076 H   0  0  0  0  0  0  0  0  0  0  0  0
  1  2  1  0
  2  3  1  0
  3  4  1  0
  4  5  2  0
  4  6  1  0
  6  7  2  3
  7  8  1  0
  8  9  1  0
  9 10  1  0
 10 11  2  0
 11 12  1  0
 12 13  1  0
 13 14  1  0
 14 15  1  0
 15 16  1  0
 16 17  1  0
 11 18  1  0
 18 19  1  0
 19 20  1  0
 20 21  2  0
 21 22  1  0
 22 23  2  0
 23 24  1  0
 24 25  2  0
 25 26  1  0
 26 27  2  0
 27 28  1  0
 28 29  2  0
 23 30  1  0
 18 31  1  0
 31  8  1  0
 17 10  1  0
 30 20  1  0
 29 24  1  0
  1 32  1  0
  1 33  1  0
  1 34  1  0
  2 35  1  0
  2 36  1  0
  6 37  1  0
  7 38  1  0
  8 39  1  0
  9 40  1  0
  9 41  1  0
 12 42  1  0
 12 43  1  0
 13 44  1  0
 13 45  1  0
 14 46  1  0
 14 47  1  0
 15 48  1  0
 15 49  1  0
 16 50  1  0
 17 51  1  0
 18 52  1  0
 19 53  1  0
 19 54  1  0
 25 55  1  0
 26 56  1  0
 27 57  1  0
 28 58  1  0
 29 59  1  0
 30 60  1  0
 31 61  1  0
 31 62  1  0
M  END
>  <Energy>  (184) 
97.317068789268035

>  <compound_id>  (184) 
278

>  <target_id>  (184) 
1

>  <reference_id>  (184) 
200

>  <inspiration_ids>  (184) 
[200, 141]

>  <energy_score>  (184) 
-42.73305668222599

>  <distance_score>  (184) 
2.0336249147705603

>  <path>  (184) 
/opt/xchem-fragalysis-2/maxwin/BulkDock/SCRATCH/505737/C278-P200/C278-P200.minimised.mol

>  <scratch_subdir>  (184) 
/opt/xchem-fragalysis-2/maxwin/BulkDock/SCRATCH/505737/C278-P200

>  <fragmenstein_runtime>  (184) 
9.169182777404785

>  <fragmenstein_outcome>  (184) 
too moved

>  <fragmenstein_mode>  (184) 
expansion

>  <fragmenstein_error>  (184) 


$$$$
C278-P141
     RDKit          3D

 62 65  0  0  0  0  0  0  0  0999 V2000
    6.3433   -4.1991   29.1653 C   0  0  0  0  0  0  0  0  0  0  0  0
    6.6460   -5.5087   28.4389 C   0  0  0  0  0  0  0  0  0  0  0  0
    5.4137   -6.2079   28.2277 O   0  0  0  0  0  0  0  0  0  0  0  0
    4.6954   -5.7474   27.1743 C   0  0  0  0  0  0  0  0  0  0  0  0
    5.1456   -5.3045   26.1327 O   0  0  0  0  0  0  0  0  0  0  0  0
    3.2441   -5.7447   27.4804 C   0  0  0  0  0  0  0  0  0  0  0  0
    2.8190   -5.9111   28.7452 C   0  0  0  0  0  0  0  0  0  0  0  0
    1.6058   -5.2416   29.3422 C   0  0  0  0  0  0  0  0  0  0  0  0
    2.1312   -3.9472   29.9917 C   0  0  0  0  0  0  0  0  0  0  0  0
    2.2391   -3.9054   31.4943 C   0  0  0  0  0  0  0  0  0  0  0  0
    1.6114   -4.8049   32.2781 C   0  0  0  0  0  0  0  0  0  0  0  0
    1.7544   -4.9395   33.7813 C   0  0  0  0  0  0  0  0  0  0  0  0
    2.9042   -4.2507   34.5439 C   0  0  0  0  0  0  0  0  0  0  0  0
    2.5902   -2.8286   35.0287 C   0  0  0  0  0  0  0  0  0  0  0  0
    2.8512   -1.7062   34.0205 C   0  0  0  0  0  0  0  0  0  0  0  0
    2.1374   -1.8995   32.7542 N   0  0  0  0  0  0  0  0  0  0  0  0
    2.9204   -2.7999   31.9808 N   0  0  0  0  0  0  0  0  0  0  0  0
    0.5404   -5.7034   31.7013 C   0  0  0  0  0  0  0  0  0  0  0  0
   -0.8056   -4.9634   31.8804 C   0  0  0  0  0  0  0  0  0  0  0  0
   -0.9540   -3.8780   30.8536 C   0  0  0  0  0  0  0  0  0  0  0  0
   -1.0317   -4.1513   29.5761 N   0  0  0  0  0  0  0  0  0  0  0  0
   -0.9023   -3.0255   28.8684 N   0  0  0  0  0  0  0  0  0  0  0  0
   -0.8669   -2.0086   29.6926 C   0  0  0  0  0  0  0  0  0  0  0  0
   -0.8633   -0.6421   29.2062 C   0  0  0  0  0  0  0  0  0  0  0  0
   -0.0855    0.3796   29.7439 C   0  0  0  0  0  0  0  0  0  0  0  0
   -0.0977    1.6442   29.1416 C   0  0  0  0  0  0  0  0  0  0  0  0
   -0.9004    1.8994   28.0260 C   0  0  0  0  0  0  0  0  0  0  0  0
   -1.6664    0.8818   27.4775 C   0  0  0  0  0  0  0  0  0  0  0  0
   -1.6282   -0.3825   28.0539 C   0  0  0  0  0  0  0  0  0  0  0  0
   -0.8821   -2.5082   30.9810 N   0  0  0  0  0  0  0  0  0  0  0  0
    0.7609   -6.1665   30.2484 C   0  0  0  0  0  0  0  0  0  0  0  0
    5.7871   -4.3913   30.0889 H   0  0  0  0  0  0  0  0  0  0  0  0
    5.7250   -3.5394   28.5483 H   0  0  0  0  0  0  0  0  0  0  0  0
    7.2705   -3.6749   29.4130 H   0  0  0  0  0  0  0  0  0  0  0  0
    7.1825   -5.3362   27.4994 H   0  0  0  0  0  0  0  0  0  0  0  0
    7.2771   -6.1440   29.0684 H   0  0  0  0  0  0  0  0  0  0  0  0
    2.6351   -5.2854   26.7143 H   0  0  0  0  0  0  0  0  0  0  0  0
    3.5400   -6.2226   29.4877 H   0  0  0  0  0  0  0  0  0  0  0  0
    0.9975   -4.9039   28.5035 H   0  0  0  0  0  0  0  0  0  0  0  0
    1.5320   -3.0964   29.6625 H   0  0  0  0  0  0  0  0  0  0  0  0
    3.1267   -3.7076   29.5868 H   0  0  0  0  0  0  0  0  0  0  0  0
    0.8061   -4.6799   34.2659 H   0  0  0  0  0  0  0  0  0  0  0  0
    1.8976   -6.0140   33.9691 H   0  0  0  0  0  0  0  0  0  0  0  0
    3.0768   -4.8506   35.4485 H   0  0  0  0  0  0  0  0  0  0  0  0
    3.8458   -4.2888   33.9846 H   0  0  0  0  0  0  0  0  0  0  0  0
    1.5516   -2.7768   35.3790 H   0  0  0  0  0  0  0  0  0  0  0  0
    3.2148   -2.6239   35.9080 H   0  0  0  0  0  0  0  0  0  0  0  0
    2.5017   -0.7652   34.4613 H   0  0  0  0  0  0  0  0  0  0  0  0
    3.9290   -1.5800   33.8545 H   0  0  0  0  0  0  0  0  0  0  0  0
    1.2329   -2.3153   32.9800 H   0  0  0  0  0  0  0  0  0  0  0  0
    3.4297   -2.3051   31.2395 H   0  0  0  0  0  0  0  0  0  0  0  0
    0.4862   -6.6176   32.3091 H   0  0  0  0  0  0  0  0  0  0  0  0
   -1.5762   -5.7178   31.7329 H   0  0  0  0  0  0  0  0  0  0  0  0
   -0.9409   -4.5554   32.8867 H   0  0  0  0  0  0  0  0  0  0  0  0
    0.5579    0.2022   30.6007 H   0  0  0  0  0  0  0  0  0  0  0  0
    0.5106    2.4471   29.5526 H   0  0  0  0  0  0  0  0  0  0  0  0
   -0.9259    2.8952   27.5887 H   0  0  0  0  0  0  0  0  0  0  0  0
   -2.2843    1.0616   26.6022 H   0  0  0  0  0  0  0  0  0  0  0  0
   -2.2009   -1.1852   27.5842 H   0  0  0  0  0  0  0  0  0  0  0  0
   -0.8101   -1.9685   31.8288 H   0  0  0  0  0  0  0  0  0  0  0  0
    1.1454   -7.1803   30.2550 H   0  0  0  0  0  0  0  0  0  0  0  0
   -0.2172   -6.3462   29.7897 H   0  0  0  0  0  0  0  0  0  0  0  0
  1  2  1  0
  2  3  1  0
  3  4  1  0
  4  5  2  0
  4  6  1  0
  6  7  2  3
  7  8  1  0
  8  9  1  0
  9 10  1  0
 10 11  2  0
 11 12  1  0
 12 13  1  0
 13 14  1  0
 14 15  1  0
 15 16  1  0
 16 17  1  0
 11 18  1  0
 18 19  1  0
 19 20  1  0
 20 21  2  0
 21 22  1  0
 22 23  2  0
 23 24  1  0
 24 25  2  0
 25 26  1  0
 26 27  2  0
 27 28  1  0
 28 29  2  0
 23 30  1  0
 18 31  1  0
 31  8  1  0
 17 10  1  0
 30 20  1  0
 29 24  1  0
  1 32  1  0
  1 33  1  0
  1 34  1  0
  2 35  1  0
  2 36  1  0
  6 37  1  0
  7 38  1  0
  8 39  1  0
  9 40  1  0
  9 41  1  0
 12 42  1  0
 12 43  1  0
 13 44  1  0
 13 45  1  0
 14 46  1  0
 14 47  1  0
 15 48  1  0
 15 49  1  0
 16 50  1  0
 17 51  1  0
 18 52  1  0
 19 53  1  0
 19 54  1  0
 25 55  1  0
 26 56  1  0
 27 57  1  0
 28 58  1  0
 29 59  1  0
 30 60  1  0
 31 61  1  0
 31 62  1  0
M  END
>  <Energy>  (185) 
99.355948506186266

>  <compound_id>  (185) 
278

>  <target_id>  (185) 
1

>  <reference_id>  (185) 
141

>  <inspiration_ids>  (185) 
[200, 141]

>  <energy_score>  (185) 
-40.69417696530752

>  <distance_score>  (185) 
2.337642762903066

>  <path>  (185) 
/opt/xchem-fragalysis-2/maxwin/BulkDock/SCRATCH/505737/C278-P141/C278-P141.minimised.mol

>  <scratch_subdir>  (185) 
/opt/xchem-fragalysis-2/maxwin/BulkDock/SCRATCH/505737/C278-P141

>  <fragmenstein_runtime>  (185) 
9.663218975067139

>  <fragmenstein_outcome>  (185) 
too moved

>  <fragmenstein_mode>  (185) 
expansion

>  <fragmenstein_error>  (185) 


$$$$
C280-P200
     RDKit          3D

 56 59  0  0  0  0  0  0  0  0999 V2000
    2.2347    0.2735   28.3531 C   0  0  0  0  0  0  0  0  0  0  0  0
    3.1300   -0.6185   27.5137 C   0  0  0  0  0  0  0  0  0  0  0  0
    3.7843   -1.6044   28.3397 O   0  0  0  0  0  0  0  0  0  0  0  0
    3.1933   -2.7369   28.7881 C   0  0  0  0  0  0  0  0  0  0  0  0
    3.7305   -3.4640   29.6155 O   0  0  0  0  0  0  0  0  0  0  0  0
    1.8801   -3.0734   28.2117 C   0  0  0  0  0  0  0  0  0  0  0  0
    0.8189   -3.4630   28.9379 C   0  0  0  0  0  0  0  0  0  0  0  0
    0.7354   -3.5583   30.4435 C   0  0  0  0  0  0  0  0  0  0  0  0
   -0.6257   -3.0591   30.9359 C   0  0  0  0  0  0  0  0  0  0  0  0
   -0.7699   -3.1251   32.4568 C   0  0  0  0  0  0  0  0  0  0  0  0
    0.1284   -4.1780   33.1271 C   0  0  0  0  0  0  0  0  0  0  0  0
   -0.3927   -4.4415   34.4854 N   0  0  0  0  0  0  0  0  0  0  0  0
    0.4404   -4.9796   35.3957 C   0  0  0  0  0  0  0  0  0  0  0  0
    1.7064   -5.2991   35.2564 N   0  0  0  0  0  0  0  0  0  0  0  0
    2.0886   -6.0158   36.3561 N   0  0  0  0  0  0  0  0  0  0  0  0
    1.0755   -6.0522   37.2020 C   0  0  0  0  0  0  0  0  0  0  0  0
    1.0511   -6.7478   38.4843 C   0  0  0  0  0  0  0  0  0  0  0  0
    1.9624   -7.7914   38.7078 C   0  0  0  0  0  0  0  0  0  0  0  0
    1.9542   -8.5054   39.9061 C   0  0  0  0  0  0  0  0  0  0  0  0
    1.0413   -8.1761   40.9027 C   0  0  0  0  0  0  0  0  0  0  0  0
    0.1443   -7.1285   40.7050 C   0  0  0  0  0  0  0  0  0  0  0  0
    0.1478   -6.4156   39.5019 C   0  0  0  0  0  0  0  0  0  0  0  0
    0.0240   -5.3705   36.6353 N   0  0  0  0  0  0  0  0  0  0  0  0
    0.3152   -5.4443   32.1931 C   0  0  0  0  0  0  0  0  0  0  0  0
    1.0572   -4.9912   30.9100 C   0  0  0  0  0  0  0  0  0  0  0  0
   -0.9403   -6.1226   31.8244 N   0  0  0  0  0  0  0  0  0  0  0  0
   -1.1392   -7.0917   32.8843 C   0  0  0  0  0  0  0  0  0  0  0  0
    0.1841   -7.5377   33.2471 N   0  0  0  0  0  0  0  0  0  0  0  0
    1.1129   -6.5314   32.7714 N   0  0  0  0  0  0  0  0  0  0  0  0
    2.8027    0.7232   29.1742 H   0  0  0  0  0  0  0  0  0  0  0  0
    1.8048    1.0731   27.7433 H   0  0  0  0  0  0  0  0  0  0  0  0
    1.4167   -0.2935   28.8067 H   0  0  0  0  0  0  0  0  0  0  0  0
    3.9262   -0.0118   27.0693 H   0  0  0  0  0  0  0  0  0  0  0  0
    2.5920   -1.0808   26.6823 H   0  0  0  0  0  0  0  0  0  0  0  0
    1.8173   -3.0392   27.1318 H   0  0  0  0  0  0  0  0  0  0  0  0
   -0.0864   -3.7284   28.3913 H   0  0  0  0  0  0  0  0  0  0  0  0
    1.4840   -2.8861   30.8847 H   0  0  0  0  0  0  0  0  0  0  0  0
   -0.7989   -2.0268   30.6052 H   0  0  0  0  0  0  0  0  0  0  0  0
   -1.4250   -3.6509   30.4788 H   0  0  0  0  0  0  0  0  0  0  0  0
   -0.5264   -2.1434   32.8845 H   0  0  0  0  0  0  0  0  0  0  0  0
   -1.8270   -3.2894   32.6946 H   0  0  0  0  0  0  0  0  0  0  0  0
    1.1196   -3.7123   33.2408 H   0  0  0  0  0  0  0  0  0  0  0  0
   -1.4112   -4.4748   34.5631 H   0  0  0  0  0  0  0  0  0  0  0  0
    2.6776   -8.0706   37.9364 H   0  0  0  0  0  0  0  0  0  0  0  0
    2.6434   -9.3330   40.0520 H   0  0  0  0  0  0  0  0  0  0  0  0
    1.0260   -8.7435   41.8297 H   0  0  0  0  0  0  0  0  0  0  0  0
   -0.5613   -6.8674   41.4899 H   0  0  0  0  0  0  0  0  0  0  0  0
   -0.5573   -5.5965   39.3882 H   0  0  0  0  0  0  0  0  0  0  0  0
   -0.8967   -5.2485   37.0219 H   0  0  0  0  0  0  0  0  0  0  0  0
    0.8965   -5.7142   30.0968 H   0  0  0  0  0  0  0  0  0  0  0  0
    2.1421   -5.0290   31.0907 H   0  0  0  0  0  0  0  0  0  0  0  0
   -0.6908   -6.7008   31.0243 H   0  0  0  0  0  0  0  0  0  0  0  0
   -1.7478   -7.9328   32.5375 H   0  0  0  0  0  0  0  0  0  0  0  0
   -1.6505   -6.6457   33.7407 H   0  0  0  0  0  0  0  0  0  0  0  0
    0.2246   -7.6242   34.2676 H   0  0  0  0  0  0  0  0  0  0  0  0
    1.6698   -6.1349   33.5468 H   0  0  0  0  0  0  0  0  0  0  0  0
  1  2  1  0
  2  3  1  0
  3  4  1  0
  4  5  2  0
  4  6  1  0
  6  7  2  3
  7  8  1  0
  8  9  1  0
  9 10  1  0
 10 11  1  0
 11 12  1  0
 12 13  1  0
 13 14  2  0
 14 15  1  0
 15 16  2  0
 16 17  1  0
 17 18  2  0
 18 19  1  0
 19 20  2  0
 20 21  1  0
 21 22  2  0
 16 23  1  0
 11 24  1  0
 24 25  1  0
 24 26  1  0
 26 27  1  0
 27 28  1  0
 28 29  1  0
 25  8  1  0
 23 13  1  0
 29 24  1  0
 22 17  1  0
  1 30  1  0
  1 31  1  0
  1 32  1  0
  2 33  1  0
  2 34  1  0
  6 35  1  0
  7 36  1  0
  8 37  1  0
  9 38  1  0
  9 39  1  0
 10 40  1  0
 10 41  1  0
 11 42  1  0
 12 43  1  0
 18 44  1  0
 19 45  1  0
 20 46  1  0
 21 47  1  0
 22 48  1  0
 23 49  1  0
 25 50  1  0
 25 51  1  0
 26 52  1  0
 27 53  1  0
 27 54  1  0
 28 55  1  0
 29 56  1  0
M  END
>  <Energy>  (186) 
56.95912567017065

>  <compound_id>  (186) 
280

>  <target_id>  (186) 
1

>  <reference_id>  (186) 
200

>  <inspiration_ids>  (186) 
[200, 145]

>  <energy_score>  (186) 
-43.31498941217026

>  <distance_score>  (186) 
2.6828304729955224

>  <path>  (186) 
/opt/xchem-fragalysis-2/maxwin/BulkDock/SCRATCH/505737/C280-P200/C280-P200.minimised.mol

>  <scratch_subdir>  (186) 
/opt/xchem-fragalysis-2/maxwin/BulkDock/SCRATCH/505737/C280-P200

>  <fragmenstein_runtime>  (186) 
18.711170434951782

>  <fragmenstein_outcome>  (186) 
too moved

>  <fragmenstein_mode>  (186) 
expansion

>  <fragmenstein_error>  (186) 


$$$$
C280-P145
     RDKit          3D

 56 59  0  0  0  0  0  0  0  0999 V2000
   -1.3410    1.2352   29.1403 C   0  0  0  0  0  0  0  0  0  0  0  0
   -1.0877    0.4143   27.8895 C   0  0  0  0  0  0  0  0  0  0  0  0
   -0.6949   -0.9045   28.2817 O   0  0  0  0  0  0  0  0  0  0  0  0
    0.6194   -1.1893   28.1678 C   0  0  0  0  0  0  0  0  0  0  0  0
    1.4937   -0.4911   27.6750 O   0  0  0  0  0  0  0  0  0  0  0  0
    0.9383   -2.4698   28.8326 C   0  0  0  0  0  0  0  0  0  0  0  0
    0.0464   -3.3790   29.2733 C   0  0  0  0  0  0  0  0  0  0  0  0
    0.4449   -4.2977   30.3873 C   0  0  0  0  0  0  0  0  0  0  0  0
   -0.0004   -5.7547   30.3110 C   0  0  0  0  0  0  0  0  0  0  0  0
   -0.5648   -6.3329   31.6203 C   0  0  0  0  0  0  0  0  0  0  0  0
    0.2054   -5.8874   32.8598 C   0  0  0  0  0  0  0  0  0  0  0  0
   -0.5000   -6.2515   34.1164 N   0  0  0  0  0  0  0  0  0  0  0  0
    0.3344   -6.7754   35.0429 C   0  0  0  0  0  0  0  0  0  0  0  0
    1.4496   -7.4162   34.7866 N   0  0  0  0  0  0  0  0  0  0  0  0
    2.0551   -7.7109   35.9568 N   0  0  0  0  0  0  0  0  0  0  0  0
    1.2925   -7.2838   36.9453 C   0  0  0  0  0  0  0  0  0  0  0  0
    1.5728   -7.5259   38.3551 C   0  0  0  0  0  0  0  0  0  0  0  0
    2.7472   -8.2292   38.6821 C   0  0  0  0  0  0  0  0  0  0  0  0
    3.0282   -8.5932   39.9960 C   0  0  0  0  0  0  0  0  0  0  0  0
    2.1377   -8.2503   41.0054 C   0  0  0  0  0  0  0  0  0  0  0  0
    0.9843   -7.5266   40.7030 C   0  0  0  0  0  0  0  0  0  0  0  0
    0.7044   -7.1554   39.3847 C   0  0  0  0  0  0  0  0  0  0  0  0
    0.1891   -6.6640   36.3986 N   0  0  0  0  0  0  0  0  0  0  0  0
    0.6514   -4.3754   32.8673 C   0  0  0  0  0  0  0  0  0  0  0  0
    0.0043   -3.6421   31.6979 C   0  0  0  0  0  0  0  0  0  0  0  0
    2.1200   -4.2942   32.7253 N   0  0  0  0  0  0  0  0  0  0  0  0
    2.6106   -4.0695   34.0717 C   0  0  0  0  0  0  0  0  0  0  0  0
    1.6428   -3.1282   34.5828 N   0  0  0  0  0  0  0  0  0  0  0  0
    0.3583   -3.6166   34.1022 N   0  0  0  0  0  0  0  0  0  0  0  0
   -1.7234    2.2272   28.8846 H   0  0  0  0  0  0  0  0  0  0  0  0
   -2.0585    0.7343   29.7982 H   0  0  0  0  0  0  0  0  0  0  0  0
   -0.4162    1.3530   29.7148 H   0  0  0  0  0  0  0  0  0  0  0  0
   -0.3381    0.9156   27.2739 H   0  0  0  0  0  0  0  0  0  0  0  0
   -1.9956    0.3245   27.2884 H   0  0  0  0  0  0  0  0  0  0  0  0
    1.9873   -2.5288   29.1073 H   0  0  0  0  0  0  0  0  0  0  0  0
   -1.0083   -3.2772   29.0232 H   0  0  0  0  0  0  0  0  0  0  0  0
    1.5427   -4.3350   30.3597 H   0  0  0  0  0  0  0  0  0  0  0  0
   -0.6668   -5.9402   29.4742 H   0  0  0  0  0  0  0  0  0  0  0  0
    0.8807   -6.3211   30.0347 H   0  0  0  0  0  0  0  0  0  0  0  0
   -0.5910   -7.4277   31.5591 H   0  0  0  0  0  0  0  0  0  0  0  0
   -1.5925   -6.0254   31.7203 H   0  0  0  0  0  0  0  0  0  0  0  0
    1.1283   -6.4669   32.7824 H   0  0  0  0  0  0  0  0  0  0  0  0
   -1.2825   -5.6423   34.3522 H   0  0  0  0  0  0  0  0  0  0  0  0
    3.4401   -8.5375   37.9010 H   0  0  0  0  0  0  0  0  0  0  0  0
    3.9237   -9.1634   40.2263 H   0  0  0  0  0  0  0  0  0  0  0  0
    2.3391   -8.5492   42.0312 H   0  0  0  0  0  0  0  0  0  0  0  0
    0.2951   -7.2587   41.5006 H   0  0  0  0  0  0  0  0  0  0  0  0
   -0.2073   -6.5997   39.1926 H   0  0  0  0  0  0  0  0  0  0  0  0
   -0.5798   -6.2493   36.8981 H   0  0  0  0  0  0  0  0  0  0  0  0
    0.2981   -2.5813   31.7089 H   0  0  0  0  0  0  0  0  0  0  0  0
   -1.0906   -3.6434   31.7891 H   0  0  0  0  0  0  0  0  0  0  0  0
    2.3050   -3.3968   32.2762 H   0  0  0  0  0  0  0  0  0  0  0  0
    2.6430   -4.9954   34.6534 H   0  0  0  0  0  0  0  0  0  0  0  0
    3.6177   -3.6416   34.0605 H   0  0  0  0  0  0  0  0  0  0  0  0
    1.7046   -3.0687   35.6005 H   0  0  0  0  0  0  0  0  0  0  0  0
   -0.0344   -4.2736   34.7727 H   0  0  0  0  0  0  0  0  0  0  0  0
  1  2  1  0
  2  3  1  0
  3  4  1  0
  4  5  2  0
  4  6  1  0
  6  7  2  3
  7  8  1  0
  8  9  1  0
  9 10  1  0
 10 11  1  0
 11 12  1  0
 12 13  1  0
 13 14  2  0
 14 15  1  0
 15 16  2  0
 16 17  1  0
 17 18  2  0
 18 19  1  0
 19 20  2  0
 20 21  1  0
 21 22  2  0
 16 23  1  0
 11 24  1  0
 24 25  1  0
 24 26  1  0
 26 27  1  0
 27 28  1  0
 28 29  1  0
 25  8  1  0
 23 13  1  0
 29 24  1  0
 22 17  1  0
  1 30  1  0
  1 31  1  0
  1 32  1  0
  2 33  1  0
  2 34  1  0
  6 35  1  0
  7 36  1  0
  8 37  1  0
  9 38  1  0
  9 39  1  0
 10 40  1  0
 10 41  1  0
 11 42  1  0
 12 43  1  0
 18 44  1  0
 19 45  1  0
 20 46  1  0
 21 47  1  0
 22 48  1  0
 23 49  1  0
 25 50  1  0
 25 51  1  0
 26 52  1  0
 27 53  1  0
 27 54  1  0
 28 55  1  0
 29 56  1  0
M  END
>  <Energy>  (187) 
61.474324081561619

>  <compound_id>  (187) 
280

>  <target_id>  (187) 
1

>  <reference_id>  (187) 
145

>  <inspiration_ids>  (187) 
[200, 145]

>  <energy_score>  (187) 
-73.30055343934572

>  <distance_score>  (187) 
2.671487094173816

>  <path>  (187) 
/opt/xchem-fragalysis-2/maxwin/BulkDock/SCRATCH/505737/C280-P145/C280-P145.minimised.mol

>  <scratch_subdir>  (187) 
/opt/xchem-fragalysis-2/maxwin/BulkDock/SCRATCH/505737/C280-P145

>  <fragmenstein_runtime>  (187) 
12.161504030227661

>  <fragmenstein_outcome>  (187) 
too moved

>  <fragmenstein_mode>  (187) 
expansion

>  <fragmenstein_error>  (187) 


$$$$
C281-P200
     RDKit          3D

 61 64  0  0  0  0  0  0  0  0999 V2000
   -2.5198   -2.3698   42.1430 C   0  0  0  0  0  0  0  0  0  0  0  0
   -1.2090   -2.7992   41.5133 C   0  0  0  0  0  0  0  0  0  0  0  0
   -1.4525   -3.0962   40.1348 O   0  0  0  0  0  0  0  0  0  0  0  0
   -0.3621   -3.5328   39.4606 C   0  0  0  0  0  0  0  0  0  0  0  0
    0.7704   -3.6502   39.8994 O   0  0  0  0  0  0  0  0  0  0  0  0
   -0.7745   -3.8392   38.0744 C   0  0  0  0  0  0  0  0  0  0  0  0
    0.1304   -4.2198   37.1585 C   0  0  0  0  0  0  0  0  0  0  0  0
   -0.2171   -4.5585   35.7292 C   0  0  0  0  0  0  0  0  0  0  0  0
    0.4676   -3.5893   34.7725 C   0  0  0  0  0  0  0  0  0  0  0  0
    0.2623   -3.9764   33.3128 C   0  0  0  0  0  0  0  0  0  0  0  0
    0.7655   -5.3983   32.9577 C   0  0  0  0  0  0  0  0  0  0  0  0
    2.3020   -5.4801   33.0765 C   0  0  0  0  0  0  0  0  0  0  0  0
    3.0739   -4.5282   32.1511 C   0  0  0  0  0  0  0  0  0  0  0  0
    2.8506   -4.7243   30.6433 C   0  0  0  0  0  0  0  0  0  0  0  0
    1.4127   -4.7797   30.1258 C   0  0  0  0  0  0  0  0  0  0  0  0
    0.6816   -3.5009   29.9112 C   0  0  0  0  0  0  0  0  0  0  0  0
   -0.5424   -3.5460   29.2437 C   0  0  0  0  0  0  0  0  0  0  0  0
   -1.4579   -2.5275   29.4223 C   0  0  0  0  0  0  0  0  0  0  0  0
   -1.1218   -1.4146   30.1711 C   0  0  0  0  0  0  0  0  0  0  0  0
    0.1679   -1.2773   30.6561 C   0  0  0  0  0  0  0  0  0  0  0  0
    1.0837   -2.3043   30.4918 C   0  0  0  0  0  0  0  0  0  0  0  0
    0.3667   -5.7987   31.1978 S   0  0  0  0  0  0  0  0  0  0  0  0
   -1.0403   -5.4821   31.0619 O   0  0  0  0  0  0  0  0  0  0  0  0
    0.7632   -7.1456   30.8286 O   0  0  0  0  0  0  0  0  0  0  0  0
   -0.0120   -6.3769   33.9103 C   0  0  0  0  0  0  0  0  0  0  0  0
    0.1936   -5.9954   35.4055 C   0  0  0  0  0  0  0  0  0  0  0  0
   -1.4437   -6.4772   33.6835 N   0  0  0  0  0  0  0  0  0  0  0  0
   -1.7172   -7.7450   33.0406 C   0  0  0  0  0  0  0  0  0  0  0  0
   -0.4472   -8.3229   32.7898 N   0  0  0  0  0  0  0  0  0  0  0  0
    0.4342   -7.7408   33.7800 N   0  0  0  0  0  0  0  0  0  0  0  0
   -3.2691   -3.1633   42.0521 H   0  0  0  0  0  0  0  0  0  0  0  0
   -2.9239   -1.4905   41.6305 H   0  0  0  0  0  0  0  0  0  0  0  0
   -2.3846   -2.1309   43.2015 H   0  0  0  0  0  0  0  0  0  0  0  0
   -0.8282   -3.6907   42.0242 H   0  0  0  0  0  0  0  0  0  0  0  0
   -0.4767   -1.9879   41.5920 H   0  0  0  0  0  0  0  0  0  0  0  0
   -1.8287   -3.7452   37.8445 H   0  0  0  0  0  0  0  0  0  0  0  0
    1.1786   -4.2975   37.4480 H   0  0  0  0  0  0  0  0  0  0  0  0
   -1.3005   -4.4652   35.5976 H   0  0  0  0  0  0  0  0  0  0  0  0
    0.0663   -2.5790   34.9277 H   0  0  0  0  0  0  0  0  0  0  0  0
    1.5403   -3.5187   34.9921 H   0  0  0  0  0  0  0  0  0  0  0  0
   -0.7976   -3.8535   33.0611 H   0  0  0  0  0  0  0  0  0  0  0  0
    0.7789   -3.2231   32.7301 H   0  0  0  0  0  0  0  0  0  0  0  0
    2.6256   -5.2829   34.1038 H   0  0  0  0  0  0  0  0  0  0  0  0
    2.6188   -6.4995   32.8646 H   0  0  0  0  0  0  0  0  0  0  0  0
    4.1452   -4.6654   32.3478 H   0  0  0  0  0  0  0  0  0  0  0  0
    2.8775   -3.4923   32.4385 H   0  0  0  0  0  0  0  0  0  0  0  0
    3.4177   -3.9581   30.0993 H   0  0  0  0  0  0  0  0  0  0  0  0
    3.3147   -5.6672   30.3485 H   0  0  0  0  0  0  0  0  0  0  0  0
    1.4425   -5.2970   29.1574 H   0  0  0  0  0  0  0  0  0  0  0  0
   -0.8485   -4.4170   28.6759 H   0  0  0  0  0  0  0  0  0  0  0  0
   -2.4336   -2.5736   28.9555 H   0  0  0  0  0  0  0  0  0  0  0  0
   -1.8399   -0.6080   30.2960 H   0  0  0  0  0  0  0  0  0  0  0  0
    0.4584   -0.3630   31.1678 H   0  0  0  0  0  0  0  0  0  0  0  0
    2.0726   -2.1627   30.9144 H   0  0  0  0  0  0  0  0  0  0  0  0
   -0.3796   -6.6732   36.0578 H   0  0  0  0  0  0  0  0  0  0  0  0
    1.2458   -6.1516   35.6844 H   0  0  0  0  0  0  0  0  0  0  0  0
   -1.7656   -5.7375   33.0593 H   0  0  0  0  0  0  0  0  0  0  0  0
   -2.2954   -8.3757   33.7187 H   0  0  0  0  0  0  0  0  0  0  0  0
   -2.2625   -7.6514   32.0985 H   0  0  0  0  0  0  0  0  0  0  0  0
   -0.1388   -8.1528   31.8248 H   0  0  0  0  0  0  0  0  0  0  0  0
    0.2114   -8.2021   34.6727 H   0  0  0  0  0  0  0  0  0  0  0  0
  1  2  1  0
  2  3  1  0
  3  4  1  0
  4  5  2  0
  4  6  1  0
  6  7  2  3
  7  8  1  0
  8  9  1  0
  9 10  1  0
 10 11  1  0
 11 12  1  0
 12 13  1  0
 13 14  1  0
 14 15  1  0
 15 16  1  0
 16 17  2  0
 17 18  1  0
 18 19  2  0
 19 20  1  0
 20 21  2  0
 15 22  1  0
 22 23  2  0
 22 24  2  0
 11 25  1  0
 25 26  1  0
 25 27  1  0
 27 28  1  0
 28 29  1  0
 29 30  1  0
 26  8  1  0
 22 11  1  0
 30 25  1  0
 21 16  1  0
  1 31  1  0
  1 32  1  0
  1 33  1  0
  2 34  1  0
  2 35  1  0
  6 36  1  0
  7 37  1  0
  8 38  1  0
  9 39  1  0
  9 40  1  0
 10 41  1  0
 10 42  1  0
 12 43  1  0
 12 44  1  0
 13 45  1  0
 13 46  1  0
 14 47  1  0
 14 48  1  0
 15 49  1  0
 17 50  1  0
 18 51  1  0
 19 52  1  0
 20 53  1  0
 21 54  1  0
 26 55  1  0
 26 56  1  0
 27 57  1  0
 28 58  1  0
 28 59  1  0
 29 60  1  0
 30 61  1  0
M  END
>  <Energy>  (188) 
75.55211653877096

>  <compound_id>  (188) 
281

>  <target_id>  (188) 
1

>  <reference_id>  (188) 
200

>  <inspiration_ids>  (188) 
[200, 147]

>  <energy_score>  (188) 
-54.071555223205905

>  <distance_score>  (188) 
4.038086592898739

>  <path>  (188) 
/opt/xchem-fragalysis-2/maxwin/BulkDock/SCRATCH/505737/C281-P200/C281-P200.minimised.mol

>  <scratch_subdir>  (188) 
/opt/xchem-fragalysis-2/maxwin/BulkDock/SCRATCH/505737/C281-P200

>  <fragmenstein_runtime>  (188) 
6.322160482406616

>  <fragmenstein_outcome>  (188) 
too moved

>  <fragmenstein_mode>  (188) 
expansion

>  <fragmenstein_error>  (188) 


$$$$
C281-P147
     RDKit          3D

 61 64  0  0  0  0  0  0  0  0999 V2000
    0.6707   -3.8909   42.1499 C   0  0  0  0  0  0  0  0  0  0  0  0
    1.4657   -2.9170   41.3021 C   0  0  0  0  0  0  0  0  0  0  0  0
    1.1775   -3.1860   39.9254 O   0  0  0  0  0  0  0  0  0  0  0  0
    1.8199   -2.3740   39.0538 C   0  0  0  0  0  0  0  0  0  0  0  0
    2.6046   -1.4818   39.3394 O   0  0  0  0  0  0  0  0  0  0  0  0
    1.4724   -2.6882   37.6484 C   0  0  0  0  0  0  0  0  0  0  0  0
    0.6171   -3.6509   37.2642 C   0  0  0  0  0  0  0  0  0  0  0  0
    0.2135   -4.0112   35.8487 C   0  0  0  0  0  0  0  0  0  0  0  0
    0.7947   -3.1247   34.7458 C   0  0  0  0  0  0  0  0  0  0  0  0
    0.4372   -3.6042   33.3403 C   0  0  0  0  0  0  0  0  0  0  0  0
    0.8913   -5.0521   33.0524 C   0  0  0  0  0  0  0  0  0  0  0  0
    2.4308   -5.1615   33.0657 C   0  0  0  0  0  0  0  0  0  0  0  0
    3.1583   -4.2576   32.0603 C   0  0  0  0  0  0  0  0  0  0  0  0
    2.8234   -4.4302   30.5722 C   0  0  0  0  0  0  0  0  0  0  0  0
    1.3763   -4.6734   30.1642 C   0  0  0  0  0  0  0  0  0  0  0  0
    0.6119   -3.4386   29.8307 C   0  0  0  0  0  0  0  0  0  0  0  0
   -0.5738   -3.5697   29.1185 C   0  0  0  0  0  0  0  0  0  0  0  0
   -1.4894   -2.5387   29.1533 C   0  0  0  0  0  0  0  0  0  0  0  0
   -1.2130   -1.3595   29.8224 C   0  0  0  0  0  0  0  0  0  0  0  0
    0.0323   -1.1651   30.3810 C   0  0  0  0  0  0  0  0  0  0  0  0
    0.9581   -2.1902   30.3489 C   0  0  0  0  0  0  0  0  0  0  0  0
    0.3744   -5.5969   31.3617 S   0  0  0  0  0  0  0  0  0  0  0  0
   -1.0293   -5.2752   31.1934 O   0  0  0  0  0  0  0  0  0  0  0  0
    0.7411   -6.9827   31.1364 O   0  0  0  0  0  0  0  0  0  0  0  0
    0.1890   -5.9364   34.1312 C   0  0  0  0  0  0  0  0  0  0  0  0
    0.5557   -5.4855   35.5739 C   0  0  0  0  0  0  0  0  0  0  0  0
    0.5008   -7.3444   33.9940 N   0  0  0  0  0  0  0  0  0  0  0  0
   -0.7821   -7.9924   33.7804 C   0  0  0  0  0  0  0  0  0  0  0  0
   -1.6962   -6.9982   33.3400 N   0  0  0  0  0  0  0  0  0  0  0  0
   -1.2516   -5.8312   33.9854 N   0  0  0  0  0  0  0  0  0  0  0  0
   -0.4019   -3.7822   41.9581 H   0  0  0  0  0  0  0  0  0  0  0  0
    0.8580   -3.7248   43.2144 H   0  0  0  0  0  0  0  0  0  0  0  0
    0.9354   -4.9238   41.9009 H   0  0  0  0  0  0  0  0  0  0  0  0
    2.5369   -3.0524   41.4889 H   0  0  0  0  0  0  0  0  0  0  0  0
    1.1749   -1.8895   41.5476 H   0  0  0  0  0  0  0  0  0  0  0  0
    1.9812   -2.0489   36.9363 H   0  0  0  0  0  0  0  0  0  0  0  0
    0.1221   -4.2463   38.0335 H   0  0  0  0  0  0  0  0  0  0  0  0
   -0.8779   -3.8912   35.8187 H   0  0  0  0  0  0  0  0  0  0  0  0
    0.4204   -2.0998   34.8679 H   0  0  0  0  0  0  0  0  0  0  0  0
    1.8853   -3.0591   34.8373 H   0  0  0  0  0  0  0  0  0  0  0  0
   -0.6406   -3.4809   33.1771 H   0  0  0  0  0  0  0  0  0  0  0  0
    0.9042   -2.9032   32.6600 H   0  0  0  0  0  0  0  0  0  0  0  0
    2.8324   -4.9311   34.0579 H   0  0  0  0  0  0  0  0  0  0  0  0
    2.7029   -6.1987   32.8854 H   0  0  0  0  0  0  0  0  0  0  0  0
    4.2378   -4.4190   32.1797 H   0  0  0  0  0  0  0  0  0  0  0  0
    3.0125   -3.2117   32.3486 H   0  0  0  0  0  0  0  0  0  0  0  0
    3.2435   -3.5720   30.0289 H   0  0  0  0  0  0  0  0  0  0  0  0
    3.3943   -5.2430   30.1316 H   0  0  0  0  0  0  0  0  0  0  0  0
    1.3990   -5.2961   29.2629 H   0  0  0  0  0  0  0  0  0  0  0  0
   -0.8529   -4.4948   28.6260 H   0  0  0  0  0  0  0  0  0  0  0  0
   -2.4316   -2.6213   28.6322 H   0  0  0  0  0  0  0  0  0  0  0  0
   -1.9460   -0.5572   29.8296 H   0  0  0  0  0  0  0  0  0  0  0  0
    0.2791   -0.2117   30.8398 H   0  0  0  0  0  0  0  0  0  0  0  0
    1.9122   -1.9946   30.8263 H   0  0  0  0  0  0  0  0  0  0  0  0
    0.0271   -6.1137   36.3078 H   0  0  0  0  0  0  0  0  0  0  0  0
    1.6241   -5.6586   35.7625 H   0  0  0  0  0  0  0  0  0  0  0  0
    0.8626   -7.7124   34.8702 H   0  0  0  0  0  0  0  0  0  0  0  0
   -0.7448   -8.7513   33.0070 H   0  0  0  0  0  0  0  0  0  0  0  0
   -1.1385   -8.3616   34.7424 H   0  0  0  0  0  0  0  0  0  0  0  0
   -1.6421   -6.8980   32.3203 H   0  0  0  0  0  0  0  0  0  0  0  0
   -1.7466   -5.6575   34.8623 H   0  0  0  0  0  0  0  0  0  0  0  0
  1  2  1  0
  2  3  1  0
  3  4  1  0
  4  5  2  0
  4  6  1  0
  6  7  2  3
  7  8  1  0
  8  9  1  0
  9 10  1  0
 10 11  1  0
 11 12  1  0
 12 13  1  0
 13 14  1  0
 14 15  1  0
 15 16  1  0
 16 17  2  0
 17 18  1  0
 18 19  2  0
 19 20  1  0
 20 21  2  0
 15 22  1  0
 22 23  2  0
 22 24  2  0
 11 25  1  0
 25 26  1  0
 25 27  1  0
 27 28  1  0
 28 29  1  0
 29 30  1  0
 26  8  1  0
 22 11  1  0
 30 25  1  0
 21 16  1  0
  1 31  1  0
  1 32  1  0
  1 33  1  0
  2 34  1  0
  2 35  1  0
  6 36  1  0
  7 37  1  0
  8 38  1  0
  9 39  1  0
  9 40  1  0
 10 41  1  0
 10 42  1  0
 12 43  1  0
 12 44  1  0
 13 45  1  0
 13 46  1  0
 14 47  1  0
 14 48  1  0
 15 49  1  0
 17 50  1  0
 18 51  1  0
 19 52  1  0
 20 53  1  0
 21 54  1  0
 26 55  1  0
 26 56  1  0
 27 57  1  0
 28 58  1  0
 28 59  1  0
 29 60  1  0
 30 61  1  0
M  END
>  <Energy>  (189) 
84.592001946783455

>  <compound_id>  (189) 
281

>  <target_id>  (189) 
1

>  <reference_id>  (189) 
147

>  <inspiration_ids>  (189) 
[200, 147]

>  <energy_score>  (189) 
-45.03166981519371

>  <distance_score>  (189) 
4.088464069415745

>  <path>  (189) 
/opt/xchem-fragalysis-2/maxwin/BulkDock/SCRATCH/505737/C281-P147/C281-P147.minimised.mol

>  <scratch_subdir>  (189) 
/opt/xchem-fragalysis-2/maxwin/BulkDock/SCRATCH/505737/C281-P147

>  <fragmenstein_runtime>  (189) 
7.898126840591431

>  <fragmenstein_outcome>  (189) 
too moved

>  <fragmenstein_mode>  (189) 
expansion

>  <fragmenstein_error>  (189) 


$$$$
C281-P200
     RDKit          3D

 61 64  0  0  0  0  0  0  0  0999 V2000
    5.9111   -3.6642   29.8614 C   0  0  0  0  0  0  0  0  0  0  0  0
    4.8087   -3.9229   28.8612 C   0  0  0  0  0  0  0  0  0  0  0  0
    4.4821   -5.3265   28.9128 O   0  0  0  0  0  0  0  0  0  0  0  0
    3.4170   -5.8197   28.2365 C   0  0  0  0  0  0  0  0  0  0  0  0
    3.1621   -7.0162   28.1881 O   0  0  0  0  0  0  0  0  0  0  0  0
    2.5594   -4.8293   27.5954 C   0  0  0  0  0  0  0  0  0  0  0  0
    1.4066   -4.3632   28.0953 C   0  0  0  0  0  0  0  0  0  0  0  0
    0.5600   -4.6229   29.3261 C   0  0  0  0  0  0  0  0  0  0  0  0
    0.4481   -3.3109   30.1023 C   0  0  0  0  0  0  0  0  0  0  0  0
    1.3784   -3.3444   31.2937 C   0  0  0  0  0  0  0  0  0  0  0  0
    0.9349   -4.4008   32.3751 C   0  0  0  0  0  0  0  0  0  0  0  0
    2.2057   -4.6192   33.2254 C   0  0  0  0  0  0  0  0  0  0  0  0
    2.0655   -5.3303   34.5688 C   0  0  0  0  0  0  0  0  0  0  0  0
    0.6694   -5.5783   35.1227 C   0  0  0  0  0  0  0  0  0  0  0  0
   -0.3515   -4.4517   35.0072 C   0  0  0  0  0  0  0  0  0  0  0  0
   -0.4076   -3.4594   36.1677 C   0  0  0  0  0  0  0  0  0  0  0  0
   -1.5521   -2.6540   36.3244 C   0  0  0  0  0  0  0  0  0  0  0  0
   -1.6651   -1.7467   37.3797 C   0  0  0  0  0  0  0  0  0  0  0  0
   -0.6345   -1.6250   38.3043 C   0  0  0  0  0  0  0  0  0  0  0  0
    0.5084   -2.4066   38.1684 C   0  0  0  0  0  0  0  0  0  0  0  0
    0.6222   -3.3139   37.1101 C   0  0  0  0  0  0  0  0  0  0  0  0
   -0.2721   -3.5380   33.4414 S   0  0  0  0  0  0  0  0  0  0  0  0
   -1.5579   -3.5950   32.7607 O   0  0  0  0  0  0  0  0  0  0  0  0
    0.2960   -2.2258   33.7168 O   0  0  0  0  0  0  0  0  0  0  0  0
    0.3709   -5.7183   31.6790 C   0  0  0  0  0  0  0  0  0  0  0  0
    0.9637   -5.7960   30.2368 C   0  0  0  0  0  0  0  0  0  0  0  0
   -1.0637   -5.9035   31.5316 N   0  0  0  0  0  0  0  0  0  0  0  0
   -1.4495   -7.0743   32.2878 C   0  0  0  0  0  0  0  0  0  0  0  0
   -0.2793   -7.8900   32.2518 N   0  0  0  0  0  0  0  0  0  0  0  0
    0.7840   -6.9327   32.3771 N   0  0  0  0  0  0  0  0  0  0  0  0
    6.7908   -4.2756   29.6343 H   0  0  0  0  0  0  0  0  0  0  0  0
    6.2037   -2.6105   29.8580 H   0  0  0  0  0  0  0  0  0  0  0  0
    5.5870   -3.9373   30.8713 H   0  0  0  0  0  0  0  0  0  0  0  0
    3.9429   -3.3104   29.1291 H   0  0  0  0  0  0  0  0  0  0  0  0
    5.1510   -3.6709   27.8520 H   0  0  0  0  0  0  0  0  0  0  0  0
    2.9334   -4.4465   26.6498 H   0  0  0  0  0  0  0  0  0  0  0  0
    0.9464   -3.5910   27.4736 H   0  0  0  0  0  0  0  0  0  0  0  0
   -0.4526   -4.8254   28.9614 H   0  0  0  0  0  0  0  0  0  0  0  0
   -0.5863   -3.1570   30.4280 H   0  0  0  0  0  0  0  0  0  0  0  0
    0.6857   -2.4395   29.4788 H   0  0  0  0  0  0  0  0  0  0  0  0
    1.4597   -2.3337   31.7067 H   0  0  0  0  0  0  0  0  0  0  0  0
    2.3920   -3.5756   30.9393 H   0  0  0  0  0  0  0  0  0  0  0  0
    2.9710   -5.1365   32.6317 H   0  0  0  0  0  0  0  0  0  0  0  0
    2.6513   -3.6379   33.4478 H   0  0  0  0  0  0  0  0  0  0  0  0
    2.6494   -4.7667   35.3067 H   0  0  0  0  0  0  0  0  0  0  0  0
    2.5782   -6.2998   34.5061 H   0  0  0  0  0  0  0  0  0  0  0  0
    0.2484   -6.4622   34.6427 H   0  0  0  0  0  0  0  0  0  0  0  0
    0.7607   -5.9036   36.1678 H   0  0  0  0  0  0  0  0  0  0  0  0
   -1.3170   -4.9621   35.0053 H   0  0  0  0  0  0  0  0  0  0  0  0
   -2.3683   -2.7147   35.6065 H   0  0  0  0  0  0  0  0  0  0  0  0
   -2.5555   -1.1313   37.4731 H   0  0  0  0  0  0  0  0  0  0  0  0
   -0.7185   -0.9195   39.1262 H   0  0  0  0  0  0  0  0  0  0  0  0
    1.3172   -2.3109   38.8886 H   0  0  0  0  0  0  0  0  0  0  0  0
    1.5345   -3.8986   37.0537 H   0  0  0  0  0  0  0  0  0  0  0  0
    0.6952   -6.7417   29.7491 H   0  0  0  0  0  0  0  0  0  0  0  0
    2.0534   -5.8173   30.3437 H   0  0  0  0  0  0  0  0  0  0  0  0
   -1.5743   -5.0945   31.8929 H   0  0  0  0  0  0  0  0  0  0  0  0
   -2.2830   -7.6049   31.8252 H   0  0  0  0  0  0  0  0  0  0  0  0
   -1.7074   -6.8211   33.3206 H   0  0  0  0  0  0  0  0  0  0  0  0
   -0.2602   -8.3438   31.3321 H   0  0  0  0  0  0  0  0  0  0  0  0
    1.6557   -7.2960   32.0001 H   0  0  0  0  0  0  0  0  0  0  0  0
  1  2  1  0
  2  3  1  0
  3  4  1  0
  4  5  2  0
  4  6  1  0
  6  7  2  3
  7  8  1  0
  8  9  1  0
  9 10  1  0
 10 11  1  0
 11 12  1  0
 12 13  1  0
 13 14  1  0
 14 15  1  0
 15 16  1  0
 16 17  2  0
 17 18  1  0
 18 19  2  0
 19 20  1  0
 20 21  2  0
 15 22  1  0
 22 23  2  0
 22 24  2  0
 11 25  1  0
 25 26  1  0
 25 27  1  0
 27 28  1  0
 28 29  1  0
 29 30  1  0
 26  8  1  0
 22 11  1  0
 30 25  1  0
 21 16  1  0
  1 31  1  0
  1 32  1  0
  1 33  1  0
  2 34  1  0
  2 35  1  0
  6 36  1  0
  7 37  1  0
  8 38  1  0
  9 39  1  0
  9 40  1  0
 10 41  1  0
 10 42  1  0
 12 43  1  0
 12 44  1  0
 13 45  1  0
 13 46  1  0
 14 47  1  0
 14 48  1  0
 15 49  1  0
 17 50  1  0
 18 51  1  0
 19 52  1  0
 20 53  1  0
 21 54  1  0
 26 55  1  0
 26 56  1  0
 27 57  1  0
 28 58  1  0
 28 59  1  0
 29 60  1  0
 30 61  1  0
M  END
>  <Energy>  (190) 
96.182171767193452

>  <compound_id>  (190) 
281

>  <target_id>  (190) 
1

>  <reference_id>  (190) 
200

>  <inspiration_ids>  (190) 
[200, 148]

>  <energy_score>  (190) 
-39.74787431052914

>  <distance_score>  (190) 
1.756182530144528

>  <path>  (190) 
/opt/xchem-fragalysis-2/maxwin/BulkDock/SCRATCH/505737/C281-P200/C281-P200.minimised.mol

>  <scratch_subdir>  (190) 
/opt/xchem-fragalysis-2/maxwin/BulkDock/SCRATCH/505737/C281-P200

>  <fragmenstein_runtime>  (190) 
8.941388368606567

>  <fragmenstein_outcome>  (190) 
too moved

>  <fragmenstein_mode>  (190) 
expansion

>  <fragmenstein_error>  (190) 


$$$$
C281-P148
     RDKit          3D

 61 64  0  0  0  0  0  0  0  0999 V2000
    5.7842   -3.6530   29.2350 C   0  0  0  0  0  0  0  0  0  0  0  0
    5.7107   -3.9429   27.7448 C   0  0  0  0  0  0  0  0  0  0  0  0
    5.3599   -5.3216   27.4944 O   0  0  0  0  0  0  0  0  0  0  0  0
    4.1285   -5.8393   27.7033 C   0  0  0  0  0  0  0  0  0  0  0  0
    3.9155   -7.0475   27.7333 O   0  0  0  0  0  0  0  0  0  0  0  0
    3.0421   -4.8782   27.9501 C   0  0  0  0  0  0  0  0  0  0  0  0
    2.1469   -5.1800   28.9047 C   0  0  0  0  0  0  0  0  0  0  0  0
    1.0312   -4.2627   29.3357 C   0  0  0  0  0  0  0  0  0  0  0  0
    1.5953   -3.1754   30.2331 C   0  0  0  0  0  0  0  0  0  0  0  0
    2.0668   -3.7680   31.5550 C   0  0  0  0  0  0  0  0  0  0  0  0
    0.9338   -4.4539   32.3782 C   0  0  0  0  0  0  0  0  0  0  0  0
    1.6618   -5.0524   33.5984 C   0  0  0  0  0  0  0  0  0  0  0  0
    0.8240   -5.7021   34.6793 C   0  0  0  0  0  0  0  0  0  0  0  0
   -0.4326   -4.9572   35.1001 C   0  0  0  0  0  0  0  0  0  0  0  0
   -0.5193   -3.4655   34.7702 C   0  0  0  0  0  0  0  0  0  0  0  0
    0.2334   -2.5002   35.6815 C   0  0  0  0  0  0  0  0  0  0  0  0
   -0.2128   -1.1655   35.7656 C   0  0  0  0  0  0  0  0  0  0  0  0
    0.4167   -0.2376   36.5979 C   0  0  0  0  0  0  0  0  0  0  0  0
    1.5005   -0.6265   37.3761 C   0  0  0  0  0  0  0  0  0  0  0  0
    1.9496   -1.9420   37.3220 C   0  0  0  0  0  0  0  0  0  0  0  0
    1.3201   -2.8707   36.4862 C   0  0  0  0  0  0  0  0  0  0  0  0
   -0.1994   -3.0983   33.0151 S   0  0  0  0  0  0  0  0  0  0  0  0
   -1.4745   -3.1816   32.3112 O   0  0  0  0  0  0  0  0  0  0  0  0
    0.5234   -1.8400   32.9212 O   0  0  0  0  0  0  0  0  0  0  0  0
    0.1033   -5.4785   31.5204 C   0  0  0  0  0  0  0  0  0  0  0  0
   -0.1429   -4.9404   30.0622 C   0  0  0  0  0  0  0  0  0  0  0  0
    0.6967   -6.8184   31.4223 N   0  0  0  0  0  0  0  0  0  0  0  0
   -0.3089   -7.7814   31.8748 C   0  0  0  0  0  0  0  0  0  0  0  0
   -1.5495   -7.0845   31.8076 N   0  0  0  0  0  0  0  0  0  0  0  0
   -1.1604   -5.7791   32.1725 N   0  0  0  0  0  0  0  0  0  0  0  0
    6.1427   -2.6345   29.4101 H   0  0  0  0  0  0  0  0  0  0  0  0
    4.8133   -3.7627   29.7231 H   0  0  0  0  0  0  0  0  0  0  0  0
    6.4658   -4.3551   29.7264 H   0  0  0  0  0  0  0  0  0  0  0  0
    5.0341   -3.2621   27.2200 H   0  0  0  0  0  0  0  0  0  0  0  0
    6.7024   -3.7952   27.3037 H   0  0  0  0  0  0  0  0  0  0  0  0
    3.0051   -3.9561   27.3897 H   0  0  0  0  0  0  0  0  0  0  0  0
    2.2866   -6.1005   29.4507 H   0  0  0  0  0  0  0  0  0  0  0  0
    0.6235   -3.7844   28.4358 H   0  0  0  0  0  0  0  0  0  0  0  0
    0.8360   -2.4030   30.3970 H   0  0  0  0  0  0  0  0  0  0  0  0
    2.4359   -2.6641   29.7473 H   0  0  0  0  0  0  0  0  0  0  0  0
    2.5465   -2.9726   32.1393 H   0  0  0  0  0  0  0  0  0  0  0  0
    2.8669   -4.4932   31.3624 H   0  0  0  0  0  0  0  0  0  0  0  0
    2.4059   -5.7880   33.2668 H   0  0  0  0  0  0  0  0  0  0  0  0
    2.2530   -4.2592   34.0761 H   0  0  0  0  0  0  0  0  0  0  0  0
    1.4638   -5.8515   35.5582 H   0  0  0  0  0  0  0  0  0  0  0  0
    0.5491   -6.7196   34.3909 H   0  0  0  0  0  0  0  0  0  0  0  0
   -0.5891   -5.1081   36.1768 H   0  0  0  0  0  0  0  0  0  0  0  0
   -1.2855   -5.4635   34.6400 H   0  0  0  0  0  0  0  0  0  0  0  0
   -1.5770   -3.1992   34.9030 H   0  0  0  0  0  0  0  0  0  0  0  0
   -1.0555   -0.8294   35.1620 H   0  0  0  0  0  0  0  0  0  0  0  0
    0.0607    0.7887   36.6319 H   0  0  0  0  0  0  0  0  0  0  0  0
    1.9929    0.0933   38.0241 H   0  0  0  0  0  0  0  0  0  0  0  0
    2.7922   -2.2500   37.9364 H   0  0  0  0  0  0  0  0  0  0  0  0
    1.7035   -3.8842   36.4995 H   0  0  0  0  0  0  0  0  0  0  0  0
   -0.9486   -4.1956   30.0873 H   0  0  0  0  0  0  0  0  0  0  0  0
   -0.5093   -5.7468   29.4206 H   0  0  0  0  0  0  0  0  0  0  0  0
    0.7822   -7.0359   30.4339 H   0  0  0  0  0  0  0  0  0  0  0  0
   -0.1031   -8.1009   32.8965 H   0  0  0  0  0  0  0  0  0  0  0  0
   -0.3585   -8.6499   31.2164 H   0  0  0  0  0  0  0  0  0  0  0  0
   -2.2032   -7.5033   32.4771 H   0  0  0  0  0  0  0  0  0  0  0  0
   -1.7992   -5.0183   31.9380 H   0  0  0  0  0  0  0  0  0  0  0  0
  1  2  1  0
  2  3  1  0
  3  4  1  0
  4  5  2  0
  4  6  1  0
  6  7  2  3
  7  8  1  0
  8  9  1  0
  9 10  1  0
 10 11  1  0
 11 12  1  0
 12 13  1  0
 13 14  1  0
 14 15  1  0
 15 16  1  0
 16 17  2  0
 17 18  1  0
 18 19  2  0
 19 20  1  0
 20 21  2  0
 15 22  1  0
 22 23  2  0
 22 24  2  0
 11 25  1  0
 25 26  1  0
 25 27  1  0
 27 28  1  0
 28 29  1  0
 29 30  1  0
 26  8  1  0
 22 11  1  0
 30 25  1  0
 21 16  1  0
  1 31  1  0
  1 32  1  0
  1 33  1  0
  2 34  1  0
  2 35  1  0
  6 36  1  0
  7 37  1  0
  8 38  1  0
  9 39  1  0
  9 40  1  0
 10 41  1  0
 10 42  1  0
 12 43  1  0
 12 44  1  0
 13 45  1  0
 13 46  1  0
 14 47  1  0
 14 48  1  0
 15 49  1  0
 17 50  1  0
 18 51  1  0
 19 52  1  0
 20 53  1  0
 21 54  1  0
 26 55  1  0
 26 56  1  0
 27 57  1  0
 28 58  1  0
 28 59  1  0
 29 60  1  0
 30 61  1  0
M  END
>  <Energy>  (191) 
83.2937282582308

>  <compound_id>  (191) 
281

>  <target_id>  (191) 
1

>  <reference_id>  (191) 
148

>  <inspiration_ids>  (191) 
[200, 148]

>  <energy_score>  (191) 
-52.63631781949044

>  <distance_score>  (191) 
1.895305887510058

>  <path>  (191) 
/opt/xchem-fragalysis-2/maxwin/BulkDock/SCRATCH/505737/C281-P148/C281-P148.minimised.mol

>  <scratch_subdir>  (191) 
/opt/xchem-fragalysis-2/maxwin/BulkDock/SCRATCH/505737/C281-P148

>  <fragmenstein_runtime>  (191) 
8.965433120727539

>  <fragmenstein_outcome>  (191) 
too moved

>  <fragmenstein_mode>  (191) 
expansion

>  <fragmenstein_error>  (191) 


$$$$
C282-P200
     RDKit          3D

 60 63  0  0  0  0  0  0  0  0999 V2000
    7.0208   -5.0004   28.6585 C   0  0  0  0  0  0  0  0  0  0  0  0
    6.5053   -4.8092   30.0819 C   0  0  0  0  0  0  0  0  0  0  0  0
    5.1443   -4.0685   30.2315 C   0  0  0  0  0  0  0  0  0  0  0  0
    4.9371   -3.7955   31.7359 N   0  0  0  0  0  0  0  0  0  0  0  0
    4.4714   -4.5993   32.7823 C   0  0  0  0  0  0  0  0  0  0  0  0
    3.1796   -4.6003   33.1612 C   0  0  0  0  0  0  0  0  0  0  0  0
    2.6809   -5.3600   34.1858 N   0  0  0  0  0  0  0  0  0  0  0  0
    3.4217   -6.2318   34.9324 C   0  0  0  0  0  0  0  0  0  0  0  0
    2.9177   -7.0477   35.6935 O   0  0  0  0  0  0  0  0  0  0  0  0
    4.8817   -6.1508   34.7320 C   0  0  0  0  0  0  0  0  0  0  0  0
    5.7058   -6.9122   35.5700 C   0  0  0  0  0  0  0  0  0  0  0  0
    7.0799   -6.8633   35.3956 C   0  0  0  0  0  0  0  0  0  0  0  0
    7.6168   -6.0467   34.4034 C   0  0  0  0  0  0  0  0  0  0  0  0
    6.7879   -5.2848   33.5702 C   0  0  0  0  0  0  0  0  0  0  0  0
    5.3992   -5.3338   33.6993 C   0  0  0  0  0  0  0  0  0  0  0  0
    4.0034   -4.9516   29.6318 C   0  0  0  0  0  0  0  0  0  0  0  0
    4.1631   -6.0738   29.1369 O   0  0  0  0  0  0  0  0  0  0  0  0
    2.6177   -4.4469   29.8012 C   0  0  0  0  0  0  0  0  0  0  0  0
    1.5669   -5.2543   29.5967 C   0  0  0  0  0  0  0  0  0  0  0  0
    0.3734   -4.8956   30.3508 C   0  0  0  0  0  0  0  0  0  0  0  0
   -0.3073   -3.6960   30.1174 C   0  0  0  0  0  0  0  0  0  0  0  0
   -1.1116   -3.1560   31.1191 C   0  0  0  0  0  0  0  0  0  0  0  0
   -1.2304   -3.8147   32.3430 C   0  0  0  0  0  0  0  0  0  0  0  0
   -0.6373   -5.0660   32.5255 C   0  0  0  0  0  0  0  0  0  0  0  0
   -0.6518   -5.7208   33.8557 C   0  0  0  0  0  0  0  0  0  0  0  0
   -1.2293   -7.0369   33.8513 N   0  0  0  0  0  0  0  0  0  0  0  0
   -0.1270   -5.1013   34.7351 O   0  0  0  0  0  0  0  0  0  0  0  0
    0.1509   -5.6243   31.5239 C   0  0  0  0  0  0  0  0  0  0  0  0
    5.2567   -2.7067   29.5229 C   0  0  0  0  0  0  0  0  0  0  0  0
    6.0236   -1.7239   30.1557 N   0  0  0  0  0  0  0  0  0  0  0  0
    5.9645   -0.6969   29.3452 C   0  0  0  0  0  0  0  0  0  0  0  0
    5.2249   -0.8942   28.2284 O   0  0  0  0  0  0  0  0  0  0  0  0
    4.7698   -2.1861   28.3298 C   0  0  0  0  0  0  0  0  0  0  0  0
    3.9238   -2.6367   27.1957 C   0  0  0  0  0  0  0  0  0  0  0  0
    4.3899   -3.9075   26.6578 N   0  0  0  0  0  0  0  0  0  0  0  0
    7.9720   -5.5435   28.6858 H   0  0  0  0  0  0  0  0  0  0  0  0
    6.3350   -5.5851   28.0419 H   0  0  0  0  0  0  0  0  0  0  0  0
    7.2124   -4.0452   28.1615 H   0  0  0  0  0  0  0  0  0  0  0  0
    6.4467   -5.7954   30.5573 H   0  0  0  0  0  0  0  0  0  0  0  0
    7.2829   -4.2550   30.6234 H   0  0  0  0  0  0  0  0  0  0  0  0
    5.7251   -3.2159   32.0366 H   0  0  0  0  0  0  0  0  0  0  0  0
    2.4474   -3.9727   32.6662 H   0  0  0  0  0  0  0  0  0  0  0  0
    1.6971   -5.2854   34.4550 H   0  0  0  0  0  0  0  0  0  0  0  0
    5.2774   -7.5338   36.3533 H   0  0  0  0  0  0  0  0  0  0  0  0
    7.7340   -7.4460   36.0394 H   0  0  0  0  0  0  0  0  0  0  0  0
    8.6968   -5.9944   34.2779 H   0  0  0  0  0  0  0  0  0  0  0  0
    7.2624   -4.6570   32.8246 H   0  0  0  0  0  0  0  0  0  0  0  0
    2.5315   -3.4885   30.3056 H   0  0  0  0  0  0  0  0  0  0  0  0
    1.6604   -6.2487   29.1814 H   0  0  0  0  0  0  0  0  0  0  0  0
   -0.1321   -3.1260   29.2057 H   0  0  0  0  0  0  0  0  0  0  0  0
   -1.5790   -2.1838   30.9753 H   0  0  0  0  0  0  0  0  0  0  0  0
   -1.7586   -3.3357   33.1662 H   0  0  0  0  0  0  0  0  0  0  0  0
   -1.4858   -7.2895   32.8810 H   0  0  0  0  0  0  0  0  0  0  0  0
   -1.6959   -7.1975   32.9413 H   0  0  0  0  0  0  0  0  0  0  0  0
    0.7323   -6.5214   31.7333 H   0  0  0  0  0  0  0  0  0  0  0  0
    6.4263    0.2737   29.4583 H   0  0  0  0  0  0  0  0  0  0  0  0
    2.8851   -2.7345   27.5257 H   0  0  0  0  0  0  0  0  0  0  0  0
    3.9324   -1.8885   26.3945 H   0  0  0  0  0  0  0  0  0  0  0  0
    5.3226   -3.7651   26.2611 H   0  0  0  0  0  0  0  0  0  0  0  0
    3.8083   -4.1303   25.8479 H   0  0  0  0  0  0  0  0  0  0  0  0
  1  2  1  0
  2  3  1  0
  3  4  1  0
  4  5  1  0
  5  6  2  0
  6  7  1  0
  7  8  1  0
  8  9  2  0
  8 10  1  0
 10 11  2  0
 11 12  1  0
 12 13  2  0
 13 14  1  0
 14 15  2  0
  3 16  1  0
 16 17  2  0
 16 18  1  0
 18 19  2  3
 19 20  1  0
 20 21  2  0
 21 22  1  0
 22 23  2  0
 23 24  1  0
 24 25  1  0
 25 26  1  0
 25 27  2  0
 24 28  2  0
  3 29  1  0
 29 30  1  0
 30 31  2  0
 31 32  1  0
 32 33  1  0
 33 34  1  0
 34 35  1  0
 15  5  1  0
 28 20  1  0
 33 29  2  0
 15 10  1  0
  1 36  1  0
  1 37  1  0
  1 38  1  0
  2 39  1  0
  2 40  1  0
  4 41  1  0
  6 42  1  0
  7 43  1  0
 11 44  1  0
 12 45  1  0
 13 46  1  0
 14 47  1  0
 18 48  1  0
 19 49  1  0
 21 50  1  0
 22 51  1  0
 23 52  1  0
 26 53  1  0
 26 54  1  0
 28 55  1  0
 31 56  1  0
 34 57  1  0
 34 58  1  0
 35 59  1  0
 35 60  1  0
M  END
>  <Energy>  (192) 
316.59776751591426

>  <compound_id>  (192) 
282

>  <target_id>  (192) 
1

>  <reference_id>  (192) 
200

>  <inspiration_ids>  (192) 
[200, 149]

>  <energy_score>  (192) 
115.85510401153215

>  <distance_score>  (192) 
3.9095142388401105

>  <path>  (192) 
/opt/xchem-fragalysis-2/maxwin/BulkDock/SCRATCH/505737/C282-P200/C282-P200.minimised.mol

>  <scratch_subdir>  (192) 
/opt/xchem-fragalysis-2/maxwin/BulkDock/SCRATCH/505737/C282-P200

>  <fragmenstein_runtime>  (192) 
13.845000505447388

>  <fragmenstein_outcome>  (192) 
too moved

>  <fragmenstein_mode>  (192) 
expansion

>  <fragmenstein_error>  (192) 


$$$$
C282-P149
     RDKit          3D

 60 63  0  0  0  0  0  0  0  0999 V2000
    6.1982   -1.8418   31.0887 C   0  0  0  0  0  0  0  0  0  0  0  0
    5.0838   -2.4278   30.2338 C   0  0  0  0  0  0  0  0  0  0  0  0
    4.9145   -3.9763   30.3157 C   0  0  0  0  0  0  0  0  0  0  0  0
    4.3079   -4.2446   31.6920 N   0  0  0  0  0  0  0  0  0  0  0  0
    4.8815   -4.7031   32.8956 C   0  0  0  0  0  0  0  0  0  0  0  0
    6.1906   -4.6855   33.2065 C   0  0  0  0  0  0  0  0  0  0  0  0
    6.7270   -5.2843   34.3154 N   0  0  0  0  0  0  0  0  0  0  0  0
    6.0182   -6.0338   35.2149 C   0  0  0  0  0  0  0  0  0  0  0  0
    6.5659   -6.6268   36.1369 O   0  0  0  0  0  0  0  0  0  0  0  0
    4.5541   -6.0668   35.0099 C   0  0  0  0  0  0  0  0  0  0  0  0
    3.7646   -6.8033   35.9079 C   0  0  0  0  0  0  0  0  0  0  0  0
    2.3828   -6.8145   35.7657 C   0  0  0  0  0  0  0  0  0  0  0  0
    1.7959   -6.0553   34.7597 C   0  0  0  0  0  0  0  0  0  0  0  0
    2.5885   -5.3155   33.8702 C   0  0  0  0  0  0  0  0  0  0  0  0
    3.9903   -5.3435   33.9374 C   0  0  0  0  0  0  0  0  0  0  0  0
    3.8229   -4.4439   29.2211 C   0  0  0  0  0  0  0  0  0  0  0  0
    3.6316   -5.6142   28.8648 O   0  0  0  0  0  0  0  0  0  0  0  0
    2.9437   -3.4263   28.5841 C   0  0  0  0  0  0  0  0  0  0  0  0
    1.6968   -3.1315   28.9766 C   0  0  0  0  0  0  0  0  0  0  0  0
    0.9434   -3.6968   30.0969 C   0  0  0  0  0  0  0  0  0  0  0  0
    0.3129   -2.8298   30.9969 C   0  0  0  0  0  0  0  0  0  0  0  0
   -0.4606   -3.3279   32.0483 C   0  0  0  0  0  0  0  0  0  0  0  0
   -0.6489   -4.7000   32.1811 C   0  0  0  0  0  0  0  0  0  0  0  0
   -0.0665   -5.5665   31.2547 C   0  0  0  0  0  0  0  0  0  0  0  0
   -0.3827   -7.0180   31.3334 C   0  0  0  0  0  0  0  0  0  0  0  0
   -0.7730   -7.5942   30.0659 N   0  0  0  0  0  0  0  0  0  0  0  0
   -0.2821   -7.5140   32.4168 O   0  0  0  0  0  0  0  0  0  0  0  0
    0.7638   -5.0705   30.2454 C   0  0  0  0  0  0  0  0  0  0  0  0
    6.1915   -4.7176   29.8904 C   0  0  0  0  0  0  0  0  0  0  0  0
    6.6399   -5.8459   30.5612 N   0  0  0  0  0  0  0  0  0  0  0  0
    7.7035   -6.2282   29.8999 C   0  0  0  0  0  0  0  0  0  0  0  0
    8.0158   -5.4562   28.8321 O   0  0  0  0  0  0  0  0  0  0  0  0
    7.0439   -4.4911   28.8148 C   0  0  0  0  0  0  0  0  0  0  0  0
    7.1338   -3.5085   27.7097 C   0  0  0  0  0  0  0  0  0  0  0  0
    5.9252   -3.5473   26.8857 N   0  0  0  0  0  0  0  0  0  0  0  0
    7.1710   -2.2881   30.8662 H   0  0  0  0  0  0  0  0  0  0  0  0
    6.2804   -0.7661   30.8991 H   0  0  0  0  0  0  0  0  0  0  0  0
    5.9899   -1.9628   32.1549 H   0  0  0  0  0  0  0  0  0  0  0  0
    4.1497   -1.9385   30.5425 H   0  0  0  0  0  0  0  0  0  0  0  0
    5.2543   -2.1058   29.2018 H   0  0  0  0  0  0  0  0  0  0  0  0
    3.3407   -4.5300   31.5994 H   0  0  0  0  0  0  0  0  0  0  0  0
    6.9262   -4.2347   32.5521 H   0  0  0  0  0  0  0  0  0  0  0  0
    7.7300   -5.2740   34.4528 H   0  0  0  0  0  0  0  0  0  0  0  0
    4.2298   -7.3614   36.7179 H   0  0  0  0  0  0  0  0  0  0  0  0
    1.7627   -7.3876   36.4523 H   0  0  0  0  0  0  0  0  0  0  0  0
    0.7117   -6.0406   34.6664 H   0  0  0  0  0  0  0  0  0  0  0  0
    2.0810   -4.7153   33.1265 H   0  0  0  0  0  0  0  0  0  0  0  0
    3.3884   -2.9113   27.7384 H   0  0  0  0  0  0  0  0  0  0  0  0
    1.1668   -2.3478   28.4320 H   0  0  0  0  0  0  0  0  0  0  0  0
    0.4291   -1.7510   30.8974 H   0  0  0  0  0  0  0  0  0  0  0  0
   -0.9198   -2.6445   32.7607 H   0  0  0  0  0  0  0  0  0  0  0  0
   -1.2455   -5.0902   33.0043 H   0  0  0  0  0  0  0  0  0  0  0  0
   -0.6334   -6.8887   29.3149 H   0  0  0  0  0  0  0  0  0  0  0  0
   -0.8604   -6.8342   29.3596 H   0  0  0  0  0  0  0  0  0  0  0  0
    1.2704   -5.7536   29.5737 H   0  0  0  0  0  0  0  0  0  0  0  0
    8.3493   -7.0715   30.1000 H   0  0  0  0  0  0  0  0  0  0  0  0
    7.2680   -2.5017   28.1170 H   0  0  0  0  0  0  0  0  0  0  0  0
    8.0066   -3.7148   27.0816 H   0  0  0  0  0  0  0  0  0  0  0  0
    5.9288   -4.4515   26.4027 H   0  0  0  0  0  0  0  0  0  0  0  0
    6.0529   -2.8711   26.1294 H   0  0  0  0  0  0  0  0  0  0  0  0
  1  2  1  0
  2  3  1  0
  3  4  1  0
  4  5  1  0
  5  6  2  0
  6  7  1  0
  7  8  1  0
  8  9  2  0
  8 10  1  0
 10 11  2  0
 11 12  1  0
 12 13  2  0
 13 14  1  0
 14 15  2  0
  3 16  1  0
 16 17  2  0
 16 18  1  0
 18 19  2  3
 19 20  1  0
 20 21  2  0
 21 22  1  0
 22 23  2  0
 23 24  1  0
 24 25  1  0
 25 26  1  0
 25 27  2  0
 24 28  2  0
  3 29  1  0
 29 30  1  0
 30 31  2  0
 31 32  1  0
 32 33  1  0
 33 34  1  0
 34 35  1  0
 15  5  1  0
 28 20  1  0
 33 29  2  0
 15 10  1  0
  1 36  1  0
  1 37  1  0
  1 38  1  0
  2 39  1  0
  2 40  1  0
  4 41  1  0
  6 42  1  0
  7 43  1  0
 11 44  1  0
 12 45  1  0
 13 46  1  0
 14 47  1  0
 18 48  1  0
 19 49  1  0
 21 50  1  0
 22 51  1  0
 23 52  1  0
 26 53  1  0
 26 54  1  0
 28 55  1  0
 31 56  1  0
 34 57  1  0
 34 58  1  0
 35 59  1  0
 35 60  1  0
M  END
>  <Energy>  (193) 
313.47222313034615

>  <compound_id>  (193) 
282

>  <target_id>  (193) 
1

>  <reference_id>  (193) 
149

>  <inspiration_ids>  (193) 
[200, 149]

>  <energy_score>  (193) 
112.7295596259525

>  <distance_score>  (193) 
3.1153109626892306

>  <path>  (193) 
/opt/xchem-fragalysis-2/maxwin/BulkDock/SCRATCH/505737/C282-P149/C282-P149.minimised.mol

>  <scratch_subdir>  (193) 
/opt/xchem-fragalysis-2/maxwin/BulkDock/SCRATCH/505737/C282-P149

>  <fragmenstein_runtime>  (193) 
14.118539571762085

>  <fragmenstein_outcome>  (193) 
too moved

>  <fragmenstein_mode>  (193) 
expansion

>  <fragmenstein_error>  (193) 


$$$$
C284-P200
     RDKit          3D

 49 51  0  0  0  0  0  0  0  0999 V2000
   -0.8424   -4.2835   37.4331 C   0  0  0  0  0  0  0  0  0  0  0  0
   -1.0102   -2.8052   37.7401 C   0  0  0  0  0  0  0  0  0  0  0  0
   -0.0217   -1.9877   37.0792 O   0  0  0  0  0  0  0  0  0  0  0  0
    0.0666   -1.7881   35.7437 C   0  0  0  0  0  0  0  0  0  0  0  0
    0.9703   -1.1246   35.2520 O   0  0  0  0  0  0  0  0  0  0  0  0
   -0.9653   -2.4334   34.9144 C   0  0  0  0  0  0  0  0  0  0  0  0
   -0.6825   -3.2170   33.8584 C   0  0  0  0  0  0  0  0  0  0  0  0
    0.6757   -3.5374   33.2962 C   0  0  0  0  0  0  0  0  0  0  0  0
    0.6212   -3.9939   31.8186 C   0  0  0  0  0  0  0  0  0  0  0  0
    0.3768   -5.4995   31.5460 C   0  0  0  0  0  0  0  0  0  0  0  0
    0.7930   -5.8097   30.0777 C   0  0  0  0  0  0  0  0  0  0  0  0
    0.5942   -7.2161   29.6839 N   0  0  0  0  0  0  0  0  0  0  0  0
   -0.7815   -7.6224   29.9547 C   0  0  0  0  0  0  0  0  0  0  0  0
   -1.2694   -7.2883   31.3588 C   0  0  0  0  0  0  0  0  0  0  0  0
   -1.0515   -5.8741   31.7183 N   0  0  0  0  0  0  0  0  0  0  0  0
    1.2352   -6.3075   32.5278 C   0  0  0  0  0  0  0  0  0  0  0  0
    0.9549   -5.9522   33.9906 C   0  0  0  0  0  0  0  0  0  0  0  0
    1.4358   -4.5152   34.1933 C   0  0  0  0  0  0  0  0  0  0  0  0
   -0.4401   -6.1467   34.3782 N   0  0  0  0  0  0  0  0  0  0  0  0
   -0.5556   -7.5005   34.8583 C   0  0  0  0  0  0  0  0  0  0  0  0
    0.7863   -7.9067   35.2114 N   0  0  0  0  0  0  0  0  0  0  0  0
    1.6607   -6.8247   34.8934 N   0  0  0  0  0  0  0  0  0  0  0  0
   -1.2002   -4.8840   38.2756 H   0  0  0  0  0  0  0  0  0  0  0  0
    0.1978   -4.5487   37.2316 H   0  0  0  0  0  0  0  0  0  0  0  0
   -1.4661   -4.5552   36.5818 H   0  0  0  0  0  0  0  0  0  0  0  0
   -0.8534   -2.6469   38.8125 H   0  0  0  0  0  0  0  0  0  0  0  0
   -2.0189   -2.4449   37.5120 H   0  0  0  0  0  0  0  0  0  0  0  0
   -1.9960   -2.2610   35.1990 H   0  0  0  0  0  0  0  0  0  0  0  0
   -1.5316   -3.6195   33.3128 H   0  0  0  0  0  0  0  0  0  0  0  0
    1.2408   -2.5961   33.2820 H   0  0  0  0  0  0  0  0  0  0  0  0
    1.5980   -3.7332   31.3841 H   0  0  0  0  0  0  0  0  0  0  0  0
   -0.1077   -3.3889   31.2613 H   0  0  0  0  0  0  0  0  0  0  0  0
    1.8534   -5.5717   29.9296 H   0  0  0  0  0  0  0  0  0  0  0  0
    0.2356   -5.1575   29.3940 H   0  0  0  0  0  0  0  0  0  0  0  0
    1.1297   -7.8157   30.2982 H   0  0  0  0  0  0  0  0  0  0  0  0
   -1.4674   -7.1813   29.2323 H   0  0  0  0  0  0  0  0  0  0  0  0
   -0.7946   -8.7065   29.8121 H   0  0  0  0  0  0  0  0  0  0  0  0
   -2.3277   -7.5322   31.4413 H   0  0  0  0  0  0  0  0  0  0  0  0
   -0.7877   -7.9722   32.0575 H   0  0  0  0  0  0  0  0  0  0  0  0
   -1.2655   -5.7920   32.7243 H   0  0  0  0  0  0  0  0  0  0  0  0
    1.0854   -7.3724   32.3897 H   0  0  0  0  0  0  0  0  0  0  0  0
    2.2959   -6.1291   32.3063 H   0  0  0  0  0  0  0  0  0  0  0  0
    2.5064   -4.4473   33.9497 H   0  0  0  0  0  0  0  0  0  0  0  0
    1.3660   -4.2198   35.2469 H   0  0  0  0  0  0  0  0  0  0  0  0
   -0.5725   -5.5539   35.1888 H   0  0  0  0  0  0  0  0  0  0  0  0
   -1.2290   -7.5515   35.7198 H   0  0  0  0  0  0  0  0  0  0  0  0
   -0.9683   -8.1522   34.0918 H   0  0  0  0  0  0  0  0  0  0  0  0
    0.7997   -8.0855   36.2227 H   0  0  0  0  0  0  0  0  0  0  0  0
    2.5766   -7.0953   34.5413 H   0  0  0  0  0  0  0  0  0  0  0  0
  1  2  1  0
  2  3  1  0
  3  4  1  0
  4  5  2  0
  4  6  1  0
  6  7  2  3
  7  8  1  0
  8  9  1  0
  9 10  1  0
 10 11  1  0
 11 12  1  0
 12 13  1  0
 13 14  1  0
 14 15  1  0
 10 16  1  0
 16 17  1  0
 17 18  1  0
 17 19  1  0
 19 20  1  0
 20 21  1  0
 21 22  1  0
 18  8  1  0
 15 10  1  0
 22 17  1  0
  1 23  1  0
  1 24  1  0
  1 25  1  0
  2 26  1  0
  2 27  1  0
  6 28  1  0
  7 29  1  0
  8 30  1  0
  9 31  1  0
  9 32  1  0
 11 33  1  0
 11 34  1  0
 12 35  1  0
 13 36  1  0
 13 37  1  0
 14 38  1  0
 14 39  1  0
 15 40  1  0
 16 41  1  0
 16 42  1  0
 18 43  1  0
 18 44  1  0
 19 45  1  0
 20 46  1  0
 20 47  1  0
 21 48  1  0
 22 49  1  0
M  END
>  <Energy>  (194) 
91.7398200924451

>  <compound_id>  (194) 
284

>  <target_id>  (194) 
1

>  <reference_id>  (194) 
200

>  <inspiration_ids>  (194) 
[200, 152]

>  <energy_score>  (194) 
-33.0875448040526

>  <distance_score>  (194) 
3.598886190380783

>  <path>  (194) 
/opt/xchem-fragalysis-2/maxwin/BulkDock/SCRATCH/505737/C284-P200/C284-P200.minimised.mol

>  <scratch_subdir>  (194) 
/opt/xchem-fragalysis-2/maxwin/BulkDock/SCRATCH/505737/C284-P200

>  <fragmenstein_runtime>  (194) 
3.0871734619140625

>  <fragmenstein_outcome>  (194) 
too moved

>  <fragmenstein_mode>  (194) 
expansion

>  <fragmenstein_error>  (194) 


$$$$
C284-P152
     RDKit          3D

 49 51  0  0  0  0  0  0  0  0999 V2000
   -1.0102   -3.9752   37.0187 C   0  0  0  0  0  0  0  0  0  0  0  0
    0.3607   -3.5748   37.5256 C   0  0  0  0  0  0  0  0  0  0  0  0
    1.1207   -4.6753   38.0749 O   0  0  0  0  0  0  0  0  0  0  0  0
    1.3821   -5.8522   37.4670 C   0  0  0  0  0  0  0  0  0  0  0  0
    1.8023   -6.8269   38.0784 O   0  0  0  0  0  0  0  0  0  0  0  0
    1.1296   -5.9757   36.0233 C   0  0  0  0  0  0  0  0  0  0  0  0
    1.6022   -5.0877   35.1377 C   0  0  0  0  0  0  0  0  0  0  0  0
    1.4769   -5.0697   33.6375 C   0  0  0  0  0  0  0  0  0  0  0  0
    0.6121   -3.9010   33.1716 C   0  0  0  0  0  0  0  0  0  0  0  0
    0.2930   -3.9729   31.6679 C   0  0  0  0  0  0  0  0  0  0  0  0
    1.6094   -3.7864   30.8222 C   0  0  0  0  0  0  0  0  0  0  0  0
    1.4030   -3.5781   29.3735 N   0  0  0  0  0  0  0  0  0  0  0  0
    0.4716   -2.4435   29.2045 C   0  0  0  0  0  0  0  0  0  0  0  0
   -0.8528   -2.6631   29.9600 C   0  0  0  0  0  0  0  0  0  0  0  0
   -0.6384   -2.8632   31.3959 N   0  0  0  0  0  0  0  0  0  0  0  0
   -0.4163   -5.2900   31.3005 C   0  0  0  0  0  0  0  0  0  0  0  0
   -0.2835   -6.4361   32.2965 C   0  0  0  0  0  0  0  0  0  0  0  0
    1.0796   -6.3842   32.9744 C   0  0  0  0  0  0  0  0  0  0  0  0
   -1.3305   -6.4374   33.2930 N   0  0  0  0  0  0  0  0  0  0  0  0
   -1.5897   -7.8246   33.5683 C   0  0  0  0  0  0  0  0  0  0  0  0
   -1.5640   -8.3893   32.2400 N   0  0  0  0  0  0  0  0  0  0  0  0
   -0.4856   -7.7037   31.5697 N   0  0  0  0  0  0  0  0  0  0  0  0
   -1.6096   -3.0818   36.8184 H   0  0  0  0  0  0  0  0  0  0  0  0
   -1.5189   -4.5791   37.7744 H   0  0  0  0  0  0  0  0  0  0  0  0
   -0.9854   -4.5603   36.1004 H   0  0  0  0  0  0  0  0  0  0  0  0
    0.2250   -2.8739   38.3570 H   0  0  0  0  0  0  0  0  0  0  0  0
    0.9463   -3.0375   36.7755 H   0  0  0  0  0  0  0  0  0  0  0  0
    0.5873   -6.8712   35.7536 H   0  0  0  0  0  0  0  0  0  0  0  0
    2.2076   -4.2635   35.5209 H   0  0  0  0  0  0  0  0  0  0  0  0
    2.5045   -4.8677   33.2983 H   0  0  0  0  0  0  0  0  0  0  0  0
    1.1244   -2.9563   33.4046 H   0  0  0  0  0  0  0  0  0  0  0  0
   -0.3208   -3.8712   33.7512 H   0  0  0  0  0  0  0  0  0  0  0  0
    2.2590   -4.6608   30.9303 H   0  0  0  0  0  0  0  0  0  0  0  0
    2.1812   -2.9334   31.2113 H   0  0  0  0  0  0  0  0  0  0  0  0
    0.9398   -4.3943   28.9781 H   0  0  0  0  0  0  0  0  0  0  0  0
    0.9554   -1.5195   29.5451 H   0  0  0  0  0  0  0  0  0  0  0  0
    0.2590   -2.3100   28.1414 H   0  0  0  0  0  0  0  0  0  0  0  0
   -1.4818   -1.7761   29.8261 H   0  0  0  0  0  0  0  0  0  0  0  0
   -1.3978   -3.5013   29.5172 H   0  0  0  0  0  0  0  0  0  0  0  0
   -1.5263   -2.9910   31.8790 H   0  0  0  0  0  0  0  0  0  0  0  0
   -1.4812   -5.0984   31.1920 H   0  0  0  0  0  0  0  0  0  0  0  0
   -0.0901   -5.6109   30.3037 H   0  0  0  0  0  0  0  0  0  0  0  0
    1.8110   -6.5369   32.1865 H   0  0  0  0  0  0  0  0  0  0  0  0
    1.1856   -7.1981   33.6881 H   0  0  0  0  0  0  0  0  0  0  0  0
   -1.1170   -5.9106   34.1313 H   0  0  0  0  0  0  0  0  0  0  0  0
   -0.8095   -8.2428   34.2108 H   0  0  0  0  0  0  0  0  0  0  0  0
   -2.5423   -7.9917   34.0717 H   0  0  0  0  0  0  0  0  0  0  0  0
   -1.4099   -9.3960   32.2948 H   0  0  0  0  0  0  0  0  0  0  0  0
   -0.7656   -7.5173   30.6057 H   0  0  0  0  0  0  0  0  0  0  0  0
  1  2  1  0
  2  3  1  0
  3  4  1  0
  4  5  2  0
  4  6  1  0
  6  7  2  3
  7  8  1  0
  8  9  1  0
  9 10  1  0
 10 11  1  0
 11 12  1  0
 12 13  1  0
 13 14  1  0
 14 15  1  0
 10 16  1  0
 16 17  1  0
 17 18  1  0
 17 19  1  0
 19 20  1  0
 20 21  1  0
 21 22  1  0
 18  8  1  0
 15 10  1  0
 22 17  1  0
  1 23  1  0
  1 24  1  0
  1 25  1  0
  2 26  1  0
  2 27  1  0
  6 28  1  0
  7 29  1  0
  8 30  1  0
  9 31  1  0
  9 32  1  0
 11 33  1  0
 11 34  1  0
 12 35  1  0
 13 36  1  0
 13 37  1  0
 14 38  1  0
 14 39  1  0
 15 40  1  0
 16 41  1  0
 16 42  1  0
 18 43  1  0
 18 44  1  0
 19 45  1  0
 20 46  1  0
 20 47  1  0
 21 48  1  0
 22 49  1  0
M  END
>  <Energy>  (195) 
94.262841321879108

>  <compound_id>  (195) 
284

>  <target_id>  (195) 
1

>  <reference_id>  (195) 
152

>  <inspiration_ids>  (195) 
[200, 152]

>  <energy_score>  (195) 
-30.564523574617695

>  <distance_score>  (195) 
1.6841601796132268

>  <path>  (195) 
/opt/xchem-fragalysis-2/maxwin/BulkDock/SCRATCH/505737/C284-P152/C284-P152.minimised.mol

>  <scratch_subdir>  (195) 
/opt/xchem-fragalysis-2/maxwin/BulkDock/SCRATCH/505737/C284-P152

>  <fragmenstein_runtime>  (195) 
2.7432334423065186

>  <fragmenstein_outcome>  (195) 
too moved

>  <fragmenstein_mode>  (195) 
expansion

>  <fragmenstein_error>  (195) 


$$$$
C284-P200
     RDKit          3D

 49 51  0  0  0  0  0  0  0  0999 V2000
   -1.2126   -2.9375   35.7482 C   0  0  0  0  0  0  0  0  0  0  0  0
   -0.2585   -2.2277   36.6912 C   0  0  0  0  0  0  0  0  0  0  0  0
    1.0568   -2.0763   36.1172 O   0  0  0  0  0  0  0  0  0  0  0  0
    1.9772   -3.0661   36.0779 C   0  0  0  0  0  0  0  0  0  0  0  0
    3.1213   -2.8903   35.6795 O   0  0  0  0  0  0  0  0  0  0  0  0
    1.5262   -4.3879   36.5230 C   0  0  0  0  0  0  0  0  0  0  0  0
    1.1757   -5.3944   35.7065 C   0  0  0  0  0  0  0  0  0  0  0  0
    1.1445   -5.5125   34.2021 C   0  0  0  0  0  0  0  0  0  0  0  0
    1.5442   -4.3021   33.3169 C   0  0  0  0  0  0  0  0  0  0  0  0
    1.2809   -4.4866   31.7796 C   0  0  0  0  0  0  0  0  0  0  0  0
    2.5370   -3.9512   31.0107 C   0  0  0  0  0  0  0  0  0  0  0  0
    2.3974   -3.9188   29.5476 N   0  0  0  0  0  0  0  0  0  0  0  0
    1.2115   -3.1187   29.2020 C   0  0  0  0  0  0  0  0  0  0  0  0
   -0.0597   -3.6602   29.8834 C   0  0  0  0  0  0  0  0  0  0  0  0
    0.0470   -3.7648   31.3558 N   0  0  0  0  0  0  0  0  0  0  0  0
    1.0594   -5.9796   31.5230 C   0  0  0  0  0  0  0  0  0  0  0  0
   -0.1385   -6.5323   32.3348 C   0  0  0  0  0  0  0  0  0  0  0  0
   -0.2309   -5.9901   33.7574 C   0  0  0  0  0  0  0  0  0  0  0  0
   -0.0482   -7.9781   32.3504 N   0  0  0  0  0  0  0  0  0  0  0  0
   -1.3651   -8.4525   31.9915 C   0  0  0  0  0  0  0  0  0  0  0  0
   -1.7351   -7.4924   30.9861 N   0  0  0  0  0  0  0  0  0  0  0  0
   -1.3803   -6.2826   31.6549 N   0  0  0  0  0  0  0  0  0  0  0  0
   -1.1277   -4.0207   35.8333 H   0  0  0  0  0  0  0  0  0  0  0  0
   -2.2446   -2.6853   36.0117 H   0  0  0  0  0  0  0  0  0  0  0  0
   -1.0365   -2.6534   34.7071 H   0  0  0  0  0  0  0  0  0  0  0  0
   -0.6238   -1.2102   36.8669 H   0  0  0  0  0  0  0  0  0  0  0  0
   -0.2054   -2.7159   37.6703 H   0  0  0  0  0  0  0  0  0  0  0  0
    1.4968   -4.5160   37.5998 H   0  0  0  0  0  0  0  0  0  0  0  0
    0.8816   -6.3154   36.2168 H   0  0  0  0  0  0  0  0  0  0  0  0
    1.8730   -6.3121   34.0024 H   0  0  0  0  0  0  0  0  0  0  0  0
    1.0282   -3.3964   33.6537 H   0  0  0  0  0  0  0  0  0  0  0  0
    2.6134   -4.1171   33.4793 H   0  0  0  0  0  0  0  0  0  0  0  0
    3.4094   -4.5700   31.2518 H   0  0  0  0  0  0  0  0  0  0  0  0
    2.7775   -2.9370   31.3571 H   0  0  0  0  0  0  0  0  0  0  0  0
    2.2530   -4.8606   29.1951 H   0  0  0  0  0  0  0  0  0  0  0  0
    1.0781   -3.1346   28.1150 H   0  0  0  0  0  0  0  0  0  0  0  0
    1.3767   -2.0721   29.4857 H   0  0  0  0  0  0  0  0  0  0  0  0
   -0.3093   -4.6323   29.4475 H   0  0  0  0  0  0  0  0  0  0  0  0
   -0.9014   -2.9987   29.6485 H   0  0  0  0  0  0  0  0  0  0  0  0
    0.1185   -2.8060   31.7123 H   0  0  0  0  0  0  0  0  0  0  0  0
    1.9763   -6.4937   31.8255 H   0  0  0  0  0  0  0  0  0  0  0  0
    0.9474   -6.2100   30.4553 H   0  0  0  0  0  0  0  0  0  0  0  0
   -0.9311   -5.1465   33.8039 H   0  0  0  0  0  0  0  0  0  0  0  0
   -0.6452   -6.7455   34.4403 H   0  0  0  0  0  0  0  0  0  0  0  0
    0.5193   -8.2208   31.5466 H   0  0  0  0  0  0  0  0  0  0  0  0
   -1.3334   -9.4486   31.5527 H   0  0  0  0  0  0  0  0  0  0  0  0
   -2.0473   -8.4590   32.8472 H   0  0  0  0  0  0  0  0  0  0  0  0
   -1.1442   -7.6300   30.1657 H   0  0  0  0  0  0  0  0  0  0  0  0
   -1.2961   -5.4151   31.1236 H   0  0  0  0  0  0  0  0  0  0  0  0
  1  2  1  0
  2  3  1  0
  3  4  1  0
  4  5  2  0
  4  6  1  0
  6  7  2  3
  7  8  1  0
  8  9  1  0
  9 10  1  0
 10 11  1  0
 11 12  1  0
 12 13  1  0
 13 14  1  0
 14 15  1  0
 10 16  1  0
 16 17  1  0
 17 18  1  0
 17 19  1  0
 19 20  1  0
 20 21  1  0
 21 22  1  0
 18  8  1  0
 15 10  1  0
 22 17  1  0
  1 23  1  0
  1 24  1  0
  1 25  1  0
  2 26  1  0
  2 27  1  0
  6 28  1  0
  7 29  1  0
  8 30  1  0
  9 31  1  0
  9 32  1  0
 11 33  1  0
 11 34  1  0
 12 35  1  0
 13 36  1  0
 13 37  1  0
 14 38  1  0
 14 39  1  0
 15 40  1  0
 16 41  1  0
 16 42  1  0
 18 43  1  0
 18 44  1  0
 19 45  1  0
 20 46  1  0
 20 47  1  0
 21 48  1  0
 22 49  1  0
M  END
>  <Energy>  (196) 
95.439012626603798

>  <compound_id>  (196) 
284

>  <target_id>  (196) 
1

>  <reference_id>  (196) 
200

>  <inspiration_ids>  (196) 
[200, 153]

>  <energy_score>  (196) 
-29.38835226989403

>  <distance_score>  (196) 
2.4130061048249023

>  <path>  (196) 
/opt/xchem-fragalysis-2/maxwin/BulkDock/SCRATCH/505737/C284-P200/C284-P200.minimised.mol

>  <scratch_subdir>  (196) 
/opt/xchem-fragalysis-2/maxwin/BulkDock/SCRATCH/505737/C284-P200

>  <fragmenstein_runtime>  (196) 
2.88330340385437

>  <fragmenstein_outcome>  (196) 
too moved

>  <fragmenstein_mode>  (196) 
expansion

>  <fragmenstein_error>  (196) 


$$$$
C284-P153
     RDKit          3D

 49 51  0  0  0  0  0  0  0  0999 V2000
   -1.6123   -2.6237   37.2948 C   0  0  0  0  0  0  0  0  0  0  0  0
   -1.5601   -1.1009   37.4169 C   0  0  0  0  0  0  0  0  0  0  0  0
   -0.9385   -0.5281   36.2581 O   0  0  0  0  0  0  0  0  0  0  0  0
    0.4146   -0.5115   36.3291 C   0  0  0  0  0  0  0  0  0  0  0  0
    1.0750    0.2188   37.0494 O   0  0  0  0  0  0  0  0  0  0  0  0
    1.0098   -1.5768   35.4911 C   0  0  0  0  0  0  0  0  0  0  0  0
    0.2831   -2.2710   34.5998 C   0  0  0  0  0  0  0  0  0  0  0  0
    0.6870   -3.5895   34.0543 C   0  0  0  0  0  0  0  0  0  0  0  0
    0.6008   -3.6570   32.5264 C   0  0  0  0  0  0  0  0  0  0  0  0
    0.4973   -5.1115   31.9956 C   0  0  0  0  0  0  0  0  0  0  0  0
    1.2379   -5.1520   30.6377 C   0  0  0  0  0  0  0  0  0  0  0  0
    1.0966   -6.3877   29.8671 N   0  0  0  0  0  0  0  0  0  0  0  0
   -0.2463   -6.9771   29.9554 C   0  0  0  0  0  0  0  0  0  0  0  0
   -0.9701   -6.8802   31.2667 C   0  0  0  0  0  0  0  0  0  0  0  0
   -0.9218   -5.4946   31.7796 N   0  0  0  0  0  0  0  0  0  0  0  0
    1.0472   -6.0519   33.0685 C   0  0  0  0  0  0  0  0  0  0  0  0
    0.1447   -5.9992   34.3440 C   0  0  0  0  0  0  0  0  0  0  0  0
   -0.2733   -4.5806   34.6745 C   0  0  0  0  0  0  0  0  0  0  0  0
    0.9258   -6.5639   35.4301 N   0  0  0  0  0  0  0  0  0  0  0  0
    0.3657   -7.8869   35.6303 C   0  0  0  0  0  0  0  0  0  0  0  0
   -0.6460   -8.0781   34.6128 N   0  0  0  0  0  0  0  0  0  0  0  0
   -1.0913   -6.7797   34.3526 N   0  0  0  0  0  0  0  0  0  0  0  0
   -0.6106   -3.0496   37.3871 H   0  0  0  0  0  0  0  0  0  0  0  0
   -2.2230   -3.0428   38.1002 H   0  0  0  0  0  0  0  0  0  0  0  0
   -2.0456   -2.9209   36.3371 H   0  0  0  0  0  0  0  0  0  0  0  0
   -2.5781   -0.7013   37.4657 H   0  0  0  0  0  0  0  0  0  0  0  0
   -1.0419   -0.7981   38.3345 H   0  0  0  0  0  0  0  0  0  0  0  0
    2.0174   -1.8597   35.7724 H   0  0  0  0  0  0  0  0  0  0  0  0
   -0.7323   -1.9493   34.3628 H   0  0  0  0  0  0  0  0  0  0  0  0
    1.7147   -3.8105   34.3724 H   0  0  0  0  0  0  0  0  0  0  0  0
   -0.2440   -3.0619   32.1512 H   0  0  0  0  0  0  0  0  0  0  0  0
    1.4964   -3.1620   32.1253 H   0  0  0  0  0  0  0  0  0  0  0  0
    2.3076   -4.9666   30.7888 H   0  0  0  0  0  0  0  0  0  0  0  0
    0.8680   -4.3298   30.0085 H   0  0  0  0  0  0  0  0  0  0  0  0
    1.2976   -6.1467   28.8969 H   0  0  0  0  0  0  0  0  0  0  0  0
   -0.1958   -8.0318   29.6623 H   0  0  0  0  0  0  0  0  0  0  0  0
   -0.9031   -6.4572   29.2636 H   0  0  0  0  0  0  0  0  0  0  0  0
   -0.5699   -7.6359   31.9429 H   0  0  0  0  0  0  0  0  0  0  0  0
   -2.0064   -7.1862   31.1319 H   0  0  0  0  0  0  0  0  0  0  0  0
   -1.2640   -4.8540   31.0655 H   0  0  0  0  0  0  0  0  0  0  0  0
    1.1634   -7.0750   32.7201 H   0  0  0  0  0  0  0  0  0  0  0  0
    2.0761   -5.7473   33.3131 H   0  0  0  0  0  0  0  0  0  0  0  0
   -1.2812   -4.3672   34.2962 H   0  0  0  0  0  0  0  0  0  0  0  0
   -0.3478   -4.4498   35.7584 H   0  0  0  0  0  0  0  0  0  0  0  0
    0.7170   -6.0559   36.2852 H   0  0  0  0  0  0  0  0  0  0  0  0
    1.2085   -8.5610   35.5163 H   0  0  0  0  0  0  0  0  0  0  0  0
   -0.0510   -7.9895   36.6391 H   0  0  0  0  0  0  0  0  0  0  0  0
   -1.3365   -8.7620   34.9593 H   0  0  0  0  0  0  0  0  0  0  0  0
   -1.5602   -6.6332   33.4584 H   0  0  0  0  0  0  0  0  0  0  0  0
  1  2  1  0
  2  3  1  0
  3  4  1  0
  4  5  2  0
  4  6  1  0
  6  7  2  3
  7  8  1  0
  8  9  1  0
  9 10  1  0
 10 11  1  0
 11 12  1  0
 12 13  1  0
 13 14  1  0
 14 15  1  0
 10 16  1  0
 16 17  1  0
 17 18  1  0
 17 19  1  0
 19 20  1  0
 20 21  1  0
 21 22  1  0
 18  8  1  0
 15 10  1  0
 22 17  1  0
  1 23  1  0
  1 24  1  0
  1 25  1  0
  2 26  1  0
  2 27  1  0
  6 28  1  0
  7 29  1  0
  8 30  1  0
  9 31  1  0
  9 32  1  0
 11 33  1  0
 11 34  1  0
 12 35  1  0
 13 36  1  0
 13 37  1  0
 14 38  1  0
 14 39  1  0
 15 40  1  0
 16 41  1  0
 16 42  1  0
 18 43  1  0
 18 44  1  0
 19 45  1  0
 20 46  1  0
 20 47  1  0
 21 48  1  0
 22 49  1  0
M  END
>  <Energy>  (197) 
102.15400703129508

>  <compound_id>  (197) 
284

>  <target_id>  (197) 
1

>  <reference_id>  (197) 
153

>  <inspiration_ids>  (197) 
[200, 153]

>  <energy_score>  (197) 
-22.673357865201496

>  <distance_score>  (197) 
3.672112432109483

>  <path>  (197) 
/opt/xchem-fragalysis-2/maxwin/BulkDock/SCRATCH/505737/C284-P153/C284-P153.minimised.mol

>  <scratch_subdir>  (197) 
/opt/xchem-fragalysis-2/maxwin/BulkDock/SCRATCH/505737/C284-P153

>  <fragmenstein_runtime>  (197) 
2.9449622631073

>  <fragmenstein_outcome>  (197) 
too moved

>  <fragmenstein_mode>  (197) 
expansion

>  <fragmenstein_error>  (197) 


$$$$
C285-P200
     RDKit          3D

 51 53  0  0  0  0  0  0  0  0999 V2000
    0.9465   -5.8949   31.0655 C   0  0  0  0  0  0  0  0  0  0  0  0
    1.6793   -4.7325   30.3661 C   0  0  0  0  0  0  0  0  0  0  0  0
    3.1258   -4.8539   30.3486 O   0  0  0  0  0  0  0  0  0  0  0  0
    3.6483   -5.6478   29.3778 C   0  0  0  0  0  0  0  0  0  0  0  0
    2.9846   -6.3461   28.6231 O   0  0  0  0  0  0  0  0  0  0  0  0
    5.1573   -5.6339   29.4277 C   0  0  0  0  0  0  0  0  0  0  0  0
    5.7820   -6.6600   28.8195 C   0  0  0  0  0  0  0  0  0  0  0  0
    7.2027   -7.2150   28.8191 C   0  0  0  0  0  0  0  0  0  0  0  0
    7.1475   -8.5648   28.0937 C   0  0  0  0  0  0  0  0  0  0  0  0
    6.8984   -8.4178   26.5652 C   0  0  0  0  0  0  0  0  0  0  0  0
    7.6429   -7.2508   25.8958 C   0  0  0  0  0  0  0  0  0  0  0  0
    6.8766   -6.0249   25.7264 N   0  0  0  0  0  0  0  0  0  0  0  0
    5.3579   -5.7530   25.9148 C   0  0  0  0  0  0  0  0  0  0  0  0
    4.5052   -6.4712   26.1526 O   0  0  0  0  0  0  0  0  0  0  0  0
    5.3598   -4.2059   25.7867 N   0  0  0  0  0  0  0  0  0  0  0  0
    4.3689   -3.3028   26.0127 C   0  0  0  0  0  0  0  0  0  0  0  0
    3.0984   -3.5275   26.5783 C   0  0  0  0  0  0  0  0  0  0  0  0
    2.4944   -2.3816   26.8995 N   0  0  0  0  0  0  0  0  0  0  0  0
    3.2668   -1.4571   26.2970 N   0  0  0  0  0  0  0  0  0  0  0  0
    4.4538   -1.9476   25.8454 C   0  0  0  0  0  0  0  0  0  0  0  0
    8.8750   -6.9407   26.8022 C   0  0  0  0  0  0  0  0  0  0  0  0
    8.3323   -6.3766   28.1868 C   0  0  0  0  0  0  0  0  0  0  0  0
    9.7083   -8.1459   26.9095 N   0  0  0  0  0  0  0  0  0  0  0  0
   10.9814   -7.6637   27.3847 C   0  0  0  0  0  0  0  0  0  0  0  0
   11.1092   -6.3078   26.8685 N   0  0  0  0  0  0  0  0  0  0  0  0
    9.8532   -6.0415   26.2032 N   0  0  0  0  0  0  0  0  0  0  0  0
    0.9771   -6.7952   30.4471 H   0  0  0  0  0  0  0  0  0  0  0  0
   -0.1033   -5.6365   31.2322 H   0  0  0  0  0  0  0  0  0  0  0  0
    1.4210   -6.1269   32.0234 H   0  0  0  0  0  0  0  0  0  0  0  0
    1.4654   -3.8077   30.9125 H   0  0  0  0  0  0  0  0  0  0  0  0
    1.3004   -4.5917   29.3470 H   0  0  0  0  0  0  0  0  0  0  0  0
    5.6490   -4.9158   30.0673 H   0  0  0  0  0  0  0  0  0  0  0  0
    5.1148   -7.2982   28.2468 H   0  0  0  0  0  0  0  0  0  0  0  0
    7.4609   -7.4037   29.8695 H   0  0  0  0  0  0  0  0  0  0  0  0
    8.0701   -9.1250   28.2814 H   0  0  0  0  0  0  0  0  0  0  0  0
    6.4041   -9.2057   28.5584 H   0  0  0  0  0  0  0  0  0  0  0  0
    7.2332   -9.3565   26.1023 H   0  0  0  0  0  0  0  0  0  0  0  0
    5.8392   -8.3513   26.3299 H   0  0  0  0  0  0  0  0  0  0  0  0
    7.9440   -7.5545   24.8885 H   0  0  0  0  0  0  0  0  0  0  0  0
    7.3418   -5.1740   25.4417 H   0  0  0  0  0  0  0  0  0  0  0  0
    6.2980   -3.8800   25.6478 H   0  0  0  0  0  0  0  0  0  0  0  0
    2.6332   -4.4662   26.8446 H   0  0  0  0  0  0  0  0  0  0  0  0
    2.9313   -0.5035   26.2540 H   0  0  0  0  0  0  0  0  0  0  0  0
    5.2041   -1.2975   25.4228 H   0  0  0  0  0  0  0  0  0  0  0  0
    9.1550   -6.3154   28.9111 H   0  0  0  0  0  0  0  0  0  0  0  0
    7.9955   -5.3390   28.0588 H   0  0  0  0  0  0  0  0  0  0  0  0
    9.8634   -8.4500   25.9531 H   0  0  0  0  0  0  0  0  0  0  0  0
   11.0187   -7.6573   28.4793 H   0  0  0  0  0  0  0  0  0  0  0  0
   11.7986   -8.3032   27.0336 H   0  0  0  0  0  0  0  0  0  0  0  0
   11.8832   -6.2738   26.2033 H   0  0  0  0  0  0  0  0  0  0  0  0
    9.5429   -5.0688   26.2514 H   0  0  0  0  0  0  0  0  0  0  0  0
  1  2  1  0
  2  3  1  0
  3  4  1  0
  4  5  2  0
  4  6  1  0
  6  7  2  3
  7  8  1  0
  8  9  1  0
  9 10  1  0
 10 11  1  0
 11 12  1  0
 12 13  1  0
 13 14  2  0
 13 15  1  0
 15 16  1  0
 16 17  1  0
 17 18  2  0
 18 19  1  0
 19 20  1  0
 11 21  1  0
 21 22  1  0
 21 23  1  0
 23 24  1  0
 24 25  1  0
 25 26  1  0
 22  8  1  0
 20 16  2  0
 26 21  1  0
  1 27  1  0
  1 28  1  0
  1 29  1  0
  2 30  1  0
  2 31  1  0
  6 32  1  0
  7 33  1  0
  8 34  1  0
  9 35  1  0
  9 36  1  0
 10 37  1  0
 10 38  1  0
 11 39  1  0
 12 40  1  0
 15 41  1  0
 17 42  1  0
 19 43  1  0
 20 44  1  0
 22 45  1  0
 22 46  1  0
 23 47  1  0
 24 48  1  0
 24 49  1  0
 25 50  1  0
 26 51  1  0
M  END
>  <Energy>  (198) 
28.040713726735824

>  <compound_id>  (198) 
285

>  <target_id>  (198) 
1

>  <reference_id>  (198) 
200

>  <inspiration_ids>  (198) 
[200, 154]

>  <energy_score>  (198) 
-16.126905758012754

>  <distance_score>  (198) 
2.596088563396799

>  <path>  (198) 
/opt/xchem-fragalysis-2/maxwin/BulkDock/SCRATCH/505737/C285-P200/C285-P200.minimised.mol

>  <scratch_subdir>  (198) 
/opt/xchem-fragalysis-2/maxwin/BulkDock/SCRATCH/505737/C285-P200

>  <fragmenstein_runtime>  (198) 
12.39214825630188

>  <fragmenstein_outcome>  (198) 
too moved

>  <fragmenstein_mode>  (198) 
expansion

>  <fragmenstein_error>  (198) 


$$$$
C285-P154
     RDKit          3D

 51 53  0  0  0  0  0  0  0  0999 V2000
    0.9092   -5.9195   31.0596 C   0  0  0  0  0  0  0  0  0  0  0  0
    1.5894   -4.7156   30.3786 C   0  0  0  0  0  0  0  0  0  0  0  0
    3.0384   -4.7867   30.3377 O   0  0  0  0  0  0  0  0  0  0  0  0
    3.5691   -5.5306   29.3320 C   0  0  0  0  0  0  0  0  0  0  0  0
    2.9172   -6.2129   28.5545 O   0  0  0  0  0  0  0  0  0  0  0  0
    5.0758   -5.4855   29.3725 C   0  0  0  0  0  0  0  0  0  0  0  0
    5.7110   -6.5073   28.7670 C   0  0  0  0  0  0  0  0  0  0  0  0
    7.1332   -7.0600   28.8089 C   0  0  0  0  0  0  0  0  0  0  0  0
    7.0974   -8.4318   28.1246 C   0  0  0  0  0  0  0  0  0  0  0  0
    6.8365   -8.3222   26.5981 C   0  0  0  0  0  0  0  0  0  0  0  0
    7.5413   -7.1465   25.9052 C   0  0  0  0  0  0  0  0  0  0  0  0
    6.7454   -5.9404   25.7363 N   0  0  0  0  0  0  0  0  0  0  0  0
    5.2099   -5.7226   25.8515 C   0  0  0  0  0  0  0  0  0  0  0  0
    4.3692   -6.4755   26.0188 O   0  0  0  0  0  0  0  0  0  0  0  0
    5.1678   -4.1705   25.7754 N   0  0  0  0  0  0  0  0  0  0  0  0
    4.1360   -3.3061   25.9775 C   0  0  0  0  0  0  0  0  0  0  0  0
    2.7908   -3.5749   26.3004 C   0  0  0  0  0  0  0  0  0  0  0  0
    2.1053   -2.4559   26.5426 N   0  0  0  0  0  0  0  0  0  0  0  0
    3.0042   -1.4846   26.3060 N   0  0  0  0  0  0  0  0  0  0  0  0
    4.2379   -1.9408   25.9638 C   0  0  0  0  0  0  0  0  0  0  0  0
    8.7871   -6.8037   26.7774 C   0  0  0  0  0  0  0  0  0  0  0  0
    8.2652   -6.2341   28.1652 C   0  0  0  0  0  0  0  0  0  0  0  0
    9.6422   -7.9942   26.8802 N   0  0  0  0  0  0  0  0  0  0  0  0
   10.9187   -7.4858   27.3186 C   0  0  0  0  0  0  0  0  0  0  0  0
   11.0090   -6.1312   26.7900 N   0  0  0  0  0  0  0  0  0  0  0  0
    9.7352   -5.8913   26.1489 N   0  0  0  0  0  0  0  0  0  0  0  0
    0.9896   -6.8112   30.4327 H   0  0  0  0  0  0  0  0  0  0  0  0
   -0.1525   -5.7144   31.2242 H   0  0  0  0  0  0  0  0  0  0  0  0
    1.3901   -6.1393   32.0173 H   0  0  0  0  0  0  0  0  0  0  0  0
    1.3515   -3.8124   30.9509 H   0  0  0  0  0  0  0  0  0  0  0  0
    1.1902   -4.5624   29.3691 H   0  0  0  0  0  0  0  0  0  0  0  0
    5.5574   -4.7732   30.0263 H   0  0  0  0  0  0  0  0  0  0  0  0
    5.0526   -7.1505   28.1891 H   0  0  0  0  0  0  0  0  0  0  0  0
    7.3790   -7.2105   29.8680 H   0  0  0  0  0  0  0  0  0  0  0  0
    8.0318   -8.9696   28.3216 H   0  0  0  0  0  0  0  0  0  0  0  0
    6.3641   -9.0744   28.6020 H   0  0  0  0  0  0  0  0  0  0  0  0
    7.1894   -9.2603   26.1480 H   0  0  0  0  0  0  0  0  0  0  0  0
    5.7746   -8.2801   26.3738 H   0  0  0  0  0  0  0  0  0  0  0  0
    7.8239   -7.4552   24.8946 H   0  0  0  0  0  0  0  0  0  0  0  0
    7.1970   -5.0653   25.5057 H   0  0  0  0  0  0  0  0  0  0  0  0
    6.1016   -3.8106   25.6985 H   0  0  0  0  0  0  0  0  0  0  0  0
    2.3023   -4.5338   26.4055 H   0  0  0  0  0  0  0  0  0  0  0  0
    2.7063   -0.5234   26.4120 H   0  0  0  0  0  0  0  0  0  0  0  0
    5.0501   -1.2627   25.7495 H   0  0  0  0  0  0  0  0  0  0  0  0
    9.0959   -6.1805   28.8809 H   0  0  0  0  0  0  0  0  0  0  0  0
    7.9357   -5.1936   28.0400 H   0  0  0  0  0  0  0  0  0  0  0  0
    9.7797   -8.3106   25.9257 H   0  0  0  0  0  0  0  0  0  0  0  0
   10.9847   -7.4706   28.4117 H   0  0  0  0  0  0  0  0  0  0  0  0
   11.7377   -8.1131   26.9501 H   0  0  0  0  0  0  0  0  0  0  0  0
   11.7724   -6.0833   26.1138 H   0  0  0  0  0  0  0  0  0  0  0  0
    9.4078   -4.9235   26.2033 H   0  0  0  0  0  0  0  0  0  0  0  0
  1  2  1  0
  2  3  1  0
  3  4  1  0
  4  5  2  0
  4  6  1  0
  6  7  2  3
  7  8  1  0
  8  9  1  0
  9 10  1  0
 10 11  1  0
 11 12  1  0
 12 13  1  0
 13 14  2  0
 13 15  1  0
 15 16  1  0
 16 17  1  0
 17 18  2  0
 18 19  1  0
 19 20  1  0
 11 21  1  0
 21 22  1  0
 21 23  1  0
 23 24  1  0
 24 25  1  0
 25 26  1  0
 22  8  1  0
 20 16  2  0
 26 21  1  0
  1 27  1  0
  1 28  1  0
  1 29  1  0
  2 30  1  0
  2 31  1  0
  6 32  1  0
  7 33  1  0
  8 34  1  0
  9 35  1  0
  9 36  1  0
 10 37  1  0
 10 38  1  0
 11 39  1  0
 12 40  1  0
 15 41  1  0
 17 42  1  0
 19 43  1  0
 20 44  1  0
 22 45  1  0
 22 46  1  0
 23 47  1  0
 24 48  1  0
 24 49  1  0
 25 50  1  0
 26 51  1  0
M  END
>  <Energy>  (199) 
25.107791601571513

>  <compound_id>  (199) 
285

>  <target_id>  (199) 
1

>  <reference_id>  (199) 
154

>  <inspiration_ids>  (199) 
[200, 154]

>  <energy_score>  (199) 
-19.05982788317658

>  <distance_score>  (199) 
2.5412667540351155

>  <path>  (199) 
/opt/xchem-fragalysis-2/maxwin/BulkDock/SCRATCH/505737/C285-P154/C285-P154.minimised.mol

>  <scratch_subdir>  (199) 
/opt/xchem-fragalysis-2/maxwin/BulkDock/SCRATCH/505737/C285-P154

>  <fragmenstein_runtime>  (199) 
11.730520009994507

>  <fragmenstein_outcome>  (199) 
too moved

>  <fragmenstein_mode>  (199) 
expansion

>  <fragmenstein_error>  (199) 


$$$$
C285-P200
     RDKit          2D

  0  0  0  0  0  0  0  0  0  0999 V2000
M  END
>  <compound_id>  (200) 
285

>  <target_id>  (200) 
1

>  <reference_id>  (200) 
200

>  <inspiration_ids>  (200) 
[200, 155]

>  <energy_score>  (200) 
nan

>  <distance_score>  (200) 
nan

>  <path>  (200) 
/opt/xchem-fragalysis-2/maxwin/BulkDock/SCRATCH/505737/C285-P200/C285-P200.minimised.mol

>  <scratch_subdir>  (200) 
/opt/xchem-fragalysis-2/maxwin/BulkDock/SCRATCH/505737/C285-P200

>  <fragmenstein_runtime>  (200) 
0.2315669059753418

>  <fragmenstein_outcome>  (200) 
too distant

>  <fragmenstein_mode>  (200) 
expansion

>  <fragmenstein_error>  (200) 
DistanceError: hit1

$$$$
C286-P200
     RDKit          3D

 27 27  0  0  0  0  0  0  0  0999 V2000
   -0.1562   -8.7369   29.3933 C   0  0  0  0  0  0  0  0  0  0  0  0
   -0.8127   -7.6821   29.8712 C   0  0  0  0  0  0  0  0  0  0  0  0
   -0.1564   -6.6809   30.7043 C   0  0  0  0  0  0  0  0  0  0  0  0
    0.0575   -5.5123   29.8763 N   0  0  0  0  0  0  0  0  0  0  0  0
    1.1923   -4.7496   30.3461 C   0  0  0  0  0  0  0  0  0  0  0  0
    1.3427   -3.5843   29.4759 N   0  0  0  0  0  0  0  0  0  0  0  0
    0.0800   -2.9308   29.1294 N   0  0  0  0  0  0  0  0  0  0  0  0
    1.0355   -4.4851   31.8201 C   0  0  0  0  0  0  0  0  0  0  0  0
    0.0529   -3.6463   32.3319 C   0  0  0  0  0  0  0  0  0  0  0  0
   -0.2928   -3.7472   33.6725 C   0  0  0  0  0  0  0  0  0  0  0  0
    0.3426   -4.6922   34.4602 C   0  0  0  0  0  0  0  0  0  0  0  0
    1.3275   -5.4951   34.0160 N   0  0  0  0  0  0  0  0  0  0  0  0
    1.6643   -5.3458   32.7218 C   0  0  0  0  0  0  0  0  0  0  0  0
   -0.6076   -9.4695   28.7515 H   0  0  0  0  0  0  0  0  0  0  0  0
    0.9016   -8.8275   29.5700 H   0  0  0  0  0  0  0  0  0  0  0  0
   -1.8237   -7.4349   29.5891 H   0  0  0  0  0  0  0  0  0  0  0  0
    0.7733   -7.1125   31.0843 H   0  0  0  0  0  0  0  0  0  0  0  0
   -0.8066   -6.4586   31.5580 H   0  0  0  0  0  0  0  0  0  0  0  0
    0.2396   -5.7288   28.9016 H   0  0  0  0  0  0  0  0  0  0  0  0
    2.1098   -5.3341   30.1949 H   0  0  0  0  0  0  0  0  0  0  0  0
    1.9799   -2.9187   29.9223 H   0  0  0  0  0  0  0  0  0  0  0  0
    0.1534   -2.4788   28.2100 H   0  0  0  0  0  0  0  0  0  0  0  0
   -0.6493   -3.6469   29.0009 H   0  0  0  0  0  0  0  0  0  0  0  0
   -0.5068   -2.9766   31.6849 H   0  0  0  0  0  0  0  0  0  0  0  0
   -1.0898   -3.1382   34.0883 H   0  0  0  0  0  0  0  0  0  0  0  0
    0.0610   -4.8249   35.5014 H   0  0  0  0  0  0  0  0  0  0  0  0
    2.4422   -6.0250   32.3949 H   0  0  0  0  0  0  0  0  0  0  0  0
  1  2  2  0
  2  3  1  0
  3  4  1  0
  4  5  1  0
  5  6  1  0
  6  7  1  0
  5  8  1  0
  8  9  2  0
  9 10  1  0
 10 11  2  0
 11 12  1  0
 12 13  2  0
 13  8  1  0
  1 14  1  0
  1 15  1  0
  2 16  1  0
  3 17  1  0
  3 18  1  0
  4 19  1  0
  5 20  1  0
  6 21  1  0
  7 22  1  0
  7 23  1  0
  9 24  1  0
 10 25  1  0
 11 26  1  0
 13 27  1  0
M  END
>  <Energy>  (201) 
34.314871688674906

>  <compound_id>  (201) 
286

>  <target_id>  (201) 
1

>  <reference_id>  (201) 
200

>  <inspiration_ids>  (201) 
[200, 156]

>  <energy_score>  (201) 
-4.760172140794623

>  <distance_score>  (201) 
2.686606241310404

>  <path>  (201) 
/opt/xchem-fragalysis-2/maxwin/BulkDock/SCRATCH/505737/C286-P200/C286-P200.minimised.mol

>  <scratch_subdir>  (201) 
/opt/xchem-fragalysis-2/maxwin/BulkDock/SCRATCH/505737/C286-P200

>  <fragmenstein_runtime>  (201) 
1.6821765899658203

>  <fragmenstein_outcome>  (201) 
too moved

>  <fragmenstein_mode>  (201) 
expansion

>  <fragmenstein_error>  (201) 


$$$$
C286-P156
     RDKit          3D

 27 27  0  0  0  0  0  0  0  0999 V2000
   -0.4352   -8.9008   30.0523 C   0  0  0  0  0  0  0  0  0  0  0  0
   -0.8991   -8.1792   31.0722 C   0  0  0  0  0  0  0  0  0  0  0  0
   -0.4023   -6.8271   31.3647 C   0  0  0  0  0  0  0  0  0  0  0  0
   -0.3424   -5.9844   30.1772 N   0  0  0  0  0  0  0  0  0  0  0  0
    0.7976   -5.0904   30.1629 C   0  0  0  0  0  0  0  0  0  0  0  0
    0.6990   -4.1177   29.0713 N   0  0  0  0  0  0  0  0  0  0  0  0
   -0.5732   -3.3981   29.0581 N   0  0  0  0  0  0  0  0  0  0  0  0
    1.0144   -4.4737   31.5151 C   0  0  0  0  0  0  0  0  0  0  0  0
    2.2491   -4.5808   32.1513 C   0  0  0  0  0  0  0  0  0  0  0  0
    2.3310   -4.3332   33.5135 C   0  0  0  0  0  0  0  0  0  0  0  0
    1.1759   -3.9850   34.1907 C   0  0  0  0  0  0  0  0  0  0  0  0
   -0.0161   -3.8148   33.5938 N   0  0  0  0  0  0  0  0  0  0  0  0
   -0.0642   -4.0124   32.2640 C   0  0  0  0  0  0  0  0  0  0  0  0
    0.3751   -8.5712   29.4252 H   0  0  0  0  0  0  0  0  0  0  0  0
   -0.7899   -9.9094   29.9202 H   0  0  0  0  0  0  0  0  0  0  0  0
   -1.6333   -8.5925   31.7624 H   0  0  0  0  0  0  0  0  0  0  0  0
    0.5654   -6.9604   31.8630 H   0  0  0  0  0  0  0  0  0  0  0  0
   -1.0939   -6.3851   32.0895 H   0  0  0  0  0  0  0  0  0  0  0  0
   -0.4033   -6.4663   29.2912 H   0  0  0  0  0  0  0  0  0  0  0  0
    1.6777   -5.7040   29.9291 H   0  0  0  0  0  0  0  0  0  0  0  0
    1.4633   -3.4468   29.1982 H   0  0  0  0  0  0  0  0  0  0  0  0
   -0.5875   -2.6668   28.3351 H   0  0  0  0  0  0  0  0  0  0  0  0
   -1.3360   -4.0189   28.7483 H   0  0  0  0  0  0  0  0  0  0  0  0
    3.1318   -4.9074   31.6123 H   0  0  0  0  0  0  0  0  0  0  0  0
    3.2699   -4.4278   34.0476 H   0  0  0  0  0  0  0  0  0  0  0  0
    1.1842   -3.8042   35.2620 H   0  0  0  0  0  0  0  0  0  0  0  0
   -1.0452   -3.8724   31.8172 H   0  0  0  0  0  0  0  0  0  0  0  0
  1  2  2  0
  2  3  1  0
  3  4  1  0
  4  5  1  0
  5  6  1  0
  6  7  1  0
  5  8  1  0
  8  9  2  0
  9 10  1  0
 10 11  2  0
 11 12  1  0
 12 13  2  0
 13  8  1  0
  1 14  1  0
  1 15  1  0
  2 16  1  0
  3 17  1  0
  3 18  1  0
  4 19  1  0
  5 20  1  0
  6 21  1  0
  7 22  1  0
  7 23  1  0
  9 24  1  0
 10 25  1  0
 11 26  1  0
 13 27  1  0
M  END
>  <Energy>  (202) 
38.737154438766893

>  <compound_id>  (202) 
286

>  <target_id>  (202) 
1

>  <reference_id>  (202) 
156

>  <inspiration_ids>  (202) 
[200, 156]

>  <energy_score>  (202) 
-0.3378893907031113

>  <distance_score>  (202) 
2.4112240419379782

>  <path>  (202) 
/opt/xchem-fragalysis-2/maxwin/BulkDock/SCRATCH/505737/C286-P156/C286-P156.minimised.mol

>  <scratch_subdir>  (202) 
/opt/xchem-fragalysis-2/maxwin/BulkDock/SCRATCH/505737/C286-P156

>  <fragmenstein_runtime>  (202) 
1.6244421005249023

>  <fragmenstein_outcome>  (202) 
too moved

>  <fragmenstein_mode>  (202) 
expansion

>  <fragmenstein_error>  (202) 


$$$$
C287-P200
     RDKit          3D

 66 70  0  0  0  0  0  0  0  0999 V2000
    1.5992   -2.9505   28.4442 C   0  0  0  0  0  0  0  0  0  0  0  0
    1.9877   -2.4966   29.6429 C   0  0  0  0  0  0  0  0  0  0  0  0
    2.7990   -3.2908   30.6252 C   0  0  0  0  0  0  0  0  0  0  0  0
    2.4026   -3.0415   31.9996 N   0  0  0  0  0  0  0  0  0  0  0  0
    2.8571   -2.0369   32.8203 C   0  0  0  0  0  0  0  0  0  0  0  0
    3.9000   -0.7313   32.3641 S   0  0  0  0  0  0  0  0  0  0  0  0
    5.4745   -1.5731   32.3584 C   0  0  0  0  0  0  0  0  0  0  0  0
    5.8448   -2.3590   33.4677 C   0  0  0  0  0  0  0  0  0  0  0  0
    7.0759   -3.0292   33.5176 C   0  0  0  0  0  0  0  0  0  0  0  0
    7.9732   -2.9224   32.4607 C   0  0  0  0  0  0  0  0  0  0  0  0
    7.6098   -2.1557   31.3694 C   0  0  0  0  0  0  0  0  0  0  0  0
    6.3928   -1.4627   31.3126 C   0  0  0  0  0  0  0  0  0  0  0  0
    6.4073   -0.6761   30.0112 C   0  0  0  0  0  0  0  0  0  0  0  0
    6.5985    0.8313   30.2472 C   0  0  0  0  0  0  0  0  0  0  0  0
    6.7974    1.6219   28.9474 C   0  0  0  0  0  0  0  0  0  0  0  0
    6.2267    0.9520   27.6918 C   0  0  0  0  0  0  0  0  0  0  0  0
    4.9799    0.1088   27.9792 C   0  0  0  0  0  0  0  0  0  0  0  0
    4.3372   -0.3944   26.7051 C   0  0  0  0  0  0  0  0  0  0  0  0
    4.2465   -1.5929   26.1034 C   0  0  0  0  0  0  0  0  0  0  0  0
    4.8180   -2.9112   26.4297 C   0  0  0  0  0  0  0  0  0  0  0  0
    4.1982   -3.9531   26.2641 O   0  0  0  0  0  0  0  0  0  0  0  0
    6.1010   -2.8081   26.8571 O   0  0  0  0  0  0  0  0  0  0  0  0
    6.7771   -4.0647   27.0272 C   0  0  0  0  0  0  0  0  0  0  0  0
    6.3921   -4.7177   28.3465 C   0  0  0  0  0  0  0  0  0  0  0  0
    5.1635   -0.9034   29.1255 C   0  0  0  0  0  0  0  0  0  0  0  0
    7.6380   -1.1802   29.2916 N   0  0  0  0  0  0  0  0  0  0  0  0
    8.4190   -1.8525   30.2689 N   0  0  0  0  0  0  0  0  0  0  0  0
    2.3767   -2.1971   34.0277 N   0  0  0  0  0  0  0  0  0  0  0  0
    1.6100   -3.3282   34.0199 N   0  0  0  0  0  0  0  0  0  0  0  0
    1.5962   -3.8355   32.7981 C   0  0  0  0  0  0  0  0  0  0  0  0
    0.8938   -5.0697   32.4482 C   0  0  0  0  0  0  0  0  0  0  0  0
    0.2946   -5.3198   31.2123 C   0  0  0  0  0  0  0  0  0  0  0  0
   -0.3528   -6.5341   30.9805 C   0  0  0  0  0  0  0  0  0  0  0  0
   -0.4149   -7.4566   32.0066 C   0  0  0  0  0  0  0  0  0  0  0  0
    0.1522   -7.2610   33.2119 N   0  0  0  0  0  0  0  0  0  0  0  0
    0.7647   -6.0683   33.4123 C   0  0  0  0  0  0  0  0  0  0  0  0
    1.8564   -3.9412   28.0802 H   0  0  0  0  0  0  0  0  0  0  0  0
    1.0328   -2.3164   27.7654 H   0  0  0  0  0  0  0  0  0  0  0  0
    1.7173   -1.4774   29.9154 H   0  0  0  0  0  0  0  0  0  0  0  0
    3.8573   -3.0407   30.5329 H   0  0  0  0  0  0  0  0  0  0  0  0
    2.7369   -4.3668   30.4340 H   0  0  0  0  0  0  0  0  0  0  0  0
    5.1816   -2.4452   34.3290 H   0  0  0  0  0  0  0  0  0  0  0  0
    7.3361   -3.6134   34.3970 H   0  0  0  0  0  0  0  0  0  0  0  0
    8.9415   -3.4087   32.5063 H   0  0  0  0  0  0  0  0  0  0  0  0
    5.7170    1.2343   30.7628 H   0  0  0  0  0  0  0  0  0  0  0  0
    7.4441    1.0308   30.9192 H   0  0  0  0  0  0  0  0  0  0  0  0
    7.8669    1.8068   28.7876 H   0  0  0  0  0  0  0  0  0  0  0  0
    6.3400    2.6114   29.0723 H   0  0  0  0  0  0  0  0  0  0  0  0
    6.9961    0.3309   27.2171 H   0  0  0  0  0  0  0  0  0  0  0  0
    5.9967    1.7431   26.9693 H   0  0  0  0  0  0  0  0  0  0  0  0
    4.2411    0.8277   28.3710 H   0  0  0  0  0  0  0  0  0  0  0  0
    3.7955    0.3959   26.1776 H   0  0  0  0  0  0  0  0  0  0  0  0
    3.6241   -1.6574   25.2101 H   0  0  0  0  0  0  0  0  0  0  0  0
    6.5785   -4.7302   26.1789 H   0  0  0  0  0  0  0  0  0  0  0  0
    7.8508   -3.8507   27.0249 H   0  0  0  0  0  0  0  0  0  0  0  0
    6.9596   -5.6405   28.4973 H   0  0  0  0  0  0  0  0  0  0  0  0
    6.5871   -4.0468   29.1862 H   0  0  0  0  0  0  0  0  0  0  0  0
    5.3257   -4.9601   28.3790 H   0  0  0  0  0  0  0  0  0  0  0  0
    5.1250   -1.9429   28.8024 H   0  0  0  0  0  0  0  0  0  0  0  0
    4.2600   -0.8009   29.7276 H   0  0  0  0  0  0  0  0  0  0  0  0
    7.3370   -1.8344   28.5623 H   0  0  0  0  0  0  0  0  0  0  0  0
    9.0569   -2.5885   29.9696 H   0  0  0  0  0  0  0  0  0  0  0  0
    0.2828   -4.5732   30.4257 H   0  0  0  0  0  0  0  0  0  0  0  0
   -0.8180   -6.7455   30.0258 H   0  0  0  0  0  0  0  0  0  0  0  0
   -0.9335   -8.4035   31.8862 H   0  0  0  0  0  0  0  0  0  0  0  0
    1.1658   -5.9333   34.4156 H   0  0  0  0  0  0  0  0  0  0  0  0
  1  2  2  0
  2  3  1  0
  3  4  1  0
  4  5  1  0
  5  6  1  0
  6  7  1  0
  7  8  2  0
  8  9  1  0
  9 10  2  0
 10 11  1  0
 11 12  2  0
 12 13  1  0
 13 14  1  0
 14 15  1  0
 15 16  1  0
 16 17  1  0
 17 18  1  0
 18 19  2  3
 19 20  1  0
 20 21  2  0
 20 22  1  0
 22 23  1  0
 23 24  1  0
 17 25  1  0
 13 26  1  0
 26 27  1  0
  5 28  2  0
 28 29  1  0
 29 30  2  0
 30 31  1  0
 31 32  2  0
 32 33  1  0
 33 34  2  0
 34 35  1  0
 35 36  2  0
 30  4  1  0
 36 31  1  0
 12  7  1  0
 25 13  1  0
 27 11  1  0
  1 37  1  0
  1 38  1  0
  2 39  1  0
  3 40  1  0
  3 41  1  0
  8 42  1  0
  9 43  1  0
 10 44  1  0
 14 45  1  0
 14 46  1  0
 15 47  1  0
 15 48  1  0
 16 49  1  0
 16 50  1  0
 17 51  1  0
 18 52  1  0
 19 53  1  0
 23 54  1  0
 23 55  1  0
 24 56  1  0
 24 57  1  0
 24 58  1  0
 25 59  1  0
 25 60  1  0
 26 61  1  0
 27 62  1  0
 32 63  1  0
 33 64  1  0
 34 65  1  0
 36 66  1  0
M  END
>  <Energy>  (203) 
113.87915406352209

>  <compound_id>  (203) 
287

>  <target_id>  (203) 
1

>  <reference_id>  (203) 
200

>  <inspiration_ids>  (203) 
[200, 157]

>  <energy_score>  (203) 
-80.04134077734886

>  <distance_score>  (203) 
2.429512578304438

>  <path>  (203) 
/opt/xchem-fragalysis-2/maxwin/BulkDock/SCRATCH/505737/C287-P200/C287-P200.minimised.mol

>  <scratch_subdir>  (203) 
/opt/xchem-fragalysis-2/maxwin/BulkDock/SCRATCH/505737/C287-P200

>  <fragmenstein_runtime>  (203) 
7.938193321228027

>  <fragmenstein_outcome>  (203) 
too moved

>  <fragmenstein_mode>  (203) 
expansion

>  <fragmenstein_error>  (203) 


$$$$
C287-P157
     RDKit          3D

 66 70  0  0  0  0  0  0  0  0999 V2000
    1.6736   -1.9963   28.6890 C   0  0  0  0  0  0  0  0  0  0  0  0
    2.1374   -1.5213   29.8517 C   0  0  0  0  0  0  0  0  0  0  0  0
    2.9940   -2.2980   30.8097 C   0  0  0  0  0  0  0  0  0  0  0  0
    2.5086   -2.2214   32.1767 N   0  0  0  0  0  0  0  0  0  0  0  0
    2.7717   -1.2201   33.0782 C   0  0  0  0  0  0  0  0  0  0  0  0
    3.5167    0.2966   32.7036 S   0  0  0  0  0  0  0  0  0  0  0  0
    5.2123   -0.0372   33.1538 C   0  0  0  0  0  0  0  0  0  0  0  0
    5.5135   -0.6948   34.3626 C   0  0  0  0  0  0  0  0  0  0  0  0
    6.8358   -0.9525   34.7540 C   0  0  0  0  0  0  0  0  0  0  0  0
    7.8941   -0.5447   33.9508 C   0  0  0  0  0  0  0  0  0  0  0  0
    7.6018    0.1111   32.7692 C   0  0  0  0  0  0  0  0  0  0  0  0
    6.2892    0.3893   32.3726 C   0  0  0  0  0  0  0  0  0  0  0  0
    6.3831    1.1612   31.0693 C   0  0  0  0  0  0  0  0  0  0  0  0
    5.9045    2.6277   31.2258 C   0  0  0  0  0  0  0  0  0  0  0  0
    5.3484    3.2435   29.9349 C   0  0  0  0  0  0  0  0  0  0  0  0
    6.0219    2.7045   28.6777 C   0  0  0  0  0  0  0  0  0  0  0  0
    5.8768    1.1719   28.5388 C   0  0  0  0  0  0  0  0  0  0  0  0
    4.7628    0.8153   27.5716 C   0  0  0  0  0  0  0  0  0  0  0  0
    4.6097   -0.3343   26.8912 C   0  0  0  0  0  0  0  0  0  0  0  0
    5.4978   -1.5136   26.9980 C   0  0  0  0  0  0  0  0  0  0  0  0
    6.6353   -1.5136   27.4340 O   0  0  0  0  0  0  0  0  0  0  0  0
    4.7938   -2.6042   26.5936 O   0  0  0  0  0  0  0  0  0  0  0  0
    5.4897   -3.8518   26.7299 C   0  0  0  0  0  0  0  0  0  0  0  0
    5.3066   -4.3920   28.1389 C   0  0  0  0  0  0  0  0  0  0  0  0
    5.6494    0.4766   29.9000 C   0  0  0  0  0  0  0  0  0  0  0  0
    7.8553    1.1357   30.7306 N   0  0  0  0  0  0  0  0  0  0  0  0
    8.5425    0.6644   31.8852 N   0  0  0  0  0  0  0  0  0  0  0  0
    2.3215   -1.5570   34.2612 N   0  0  0  0  0  0  0  0  0  0  0  0
    1.7581   -2.7974   34.1514 N   0  0  0  0  0  0  0  0  0  0  0  0
    1.8191   -3.1883   32.8893 C   0  0  0  0  0  0  0  0  0  0  0  0
    1.2644   -4.4549   32.4174 C   0  0  0  0  0  0  0  0  0  0  0  0
    0.6268   -4.6163   31.1876 C   0  0  0  0  0  0  0  0  0  0  0  0
    0.0821   -5.8519   30.8403 C   0  0  0  0  0  0  0  0  0  0  0  0
    0.1611   -6.8906   31.7494 C   0  0  0  0  0  0  0  0  0  0  0  0
    0.7713   -6.7849   32.9473 N   0  0  0  0  0  0  0  0  0  0  0  0
    1.2850   -5.5673   33.2589 C   0  0  0  0  0  0  0  0  0  0  0  0
    1.0517   -1.3756   28.0472 H   0  0  0  0  0  0  0  0  0  0  0  0
    1.8941   -3.0005   28.3432 H   0  0  0  0  0  0  0  0  0  0  0  0
    1.8850   -0.4967   30.1208 H   0  0  0  0  0  0  0  0  0  0  0  0
    4.0172   -1.9102   30.7982 H   0  0  0  0  0  0  0  0  0  0  0  0
    3.0682   -3.3538   30.5298 H   0  0  0  0  0  0  0  0  0  0  0  0
    4.7183   -1.0052   35.0395 H   0  0  0  0  0  0  0  0  0  0  0  0
    7.0297   -1.4562   35.6978 H   0  0  0  0  0  0  0  0  0  0  0  0
    8.9201   -0.7167   34.2570 H   0  0  0  0  0  0  0  0  0  0  0  0
    5.1294    2.7173   31.9960 H   0  0  0  0  0  0  0  0  0  0  0  0
    6.7256    3.2559   31.5984 H   0  0  0  0  0  0  0  0  0  0  0  0
    5.4551    4.3335   29.9787 H   0  0  0  0  0  0  0  0  0  0  0  0
    4.2711    3.0417   29.8768 H   0  0  0  0  0  0  0  0  0  0  0  0
    7.0877    2.9641   28.7134 H   0  0  0  0  0  0  0  0  0  0  0  0
    5.6272    3.2234   27.7953 H   0  0  0  0  0  0  0  0  0  0  0  0
    6.8231    0.8233   28.1069 H   0  0  0  0  0  0  0  0  0  0  0  0
    3.9953    1.5737   27.4211 H   0  0  0  0  0  0  0  0  0  0  0  0
    3.7612   -0.4513   26.2248 H   0  0  0  0  0  0  0  0  0  0  0  0
    5.0457   -4.5474   26.0108 H   0  0  0  0  0  0  0  0  0  0  0  0
    6.5496   -3.7517   26.4701 H   0  0  0  0  0  0  0  0  0  0  0  0
    5.7288   -3.7093   28.8830 H   0  0  0  0  0  0  0  0  0  0  0  0
    5.7895   -5.3675   28.2450 H   0  0  0  0  0  0  0  0  0  0  0  0
    4.2422   -4.4991   28.3724 H   0  0  0  0  0  0  0  0  0  0  0  0
    5.9507   -0.5771   29.8283 H   0  0  0  0  0  0  0  0  0  0  0  0
    4.5735    0.4589   30.1036 H   0  0  0  0  0  0  0  0  0  0  0  0
    8.1776    2.0813   30.5166 H   0  0  0  0  0  0  0  0  0  0  0  0
    9.3170    0.0207   31.7068 H   0  0  0  0  0  0  0  0  0  0  0  0
    0.4958   -3.7825   30.5063 H   0  0  0  0  0  0  0  0  0  0  0  0
   -0.4176   -5.9878   29.8890 H   0  0  0  0  0  0  0  0  0  0  0  0
   -0.2746   -7.8618   31.5316 H   0  0  0  0  0  0  0  0  0  0  0  0
    1.7268   -5.5049   34.2522 H   0  0  0  0  0  0  0  0  0  0  0  0
  1  2  2  0
  2  3  1  0
  3  4  1  0
  4  5  1  0
  5  6  1  0
  6  7  1  0
  7  8  2  0
  8  9  1  0
  9 10  2  0
 10 11  1  0
 11 12  2  0
 12 13  1  0
 13 14  1  0
 14 15  1  0
 15 16  1  0
 16 17  1  0
 17 18  1  0
 18 19  2  3
 19 20  1  0
 20 21  2  0
 20 22  1  0
 22 23  1  0
 23 24  1  0
 17 25  1  0
 13 26  1  0
 26 27  1  0
  5 28  2  0
 28 29  1  0
 29 30  2  0
 30 31  1  0
 31 32  2  0
 32 33  1  0
 33 34  2  0
 34 35  1  0
 35 36  2  0
 30  4  1  0
 36 31  1  0
 12  7  1  0
 25 13  1  0
 27 11  1  0
  1 37  1  0
  1 38  1  0
  2 39  1  0
  3 40  1  0
  3 41  1  0
  8 42  1  0
  9 43  1  0
 10 44  1  0
 14 45  1  0
 14 46  1  0
 15 47  1  0
 15 48  1  0
 16 49  1  0
 16 50  1  0
 17 51  1  0
 18 52  1  0
 19 53  1  0
 23 54  1  0
 23 55  1  0
 24 56  1  0
 24 57  1  0
 24 58  1  0
 25 59  1  0
 25 60  1  0
 26 61  1  0
 27 62  1  0
 32 63  1  0
 33 64  1  0
 34 65  1  0
 36 66  1  0
M  END
>  <Energy>  (204) 
106.74901229832523

>  <compound_id>  (204) 
287

>  <target_id>  (204) 
1

>  <reference_id>  (204) 
157

>  <inspiration_ids>  (204) 
[200, 157]

>  <energy_score>  (204) 
-87.17148254254153

>  <distance_score>  (204) 
2.903815333237141

>  <path>  (204) 
/opt/xchem-fragalysis-2/maxwin/BulkDock/SCRATCH/505737/C287-P157/C287-P157.minimised.mol

>  <scratch_subdir>  (204) 
/opt/xchem-fragalysis-2/maxwin/BulkDock/SCRATCH/505737/C287-P157

>  <fragmenstein_runtime>  (204) 
7.906235694885254

>  <fragmenstein_outcome>  (204) 
too moved

>  <fragmenstein_mode>  (204) 
expansion

>  <fragmenstein_error>  (204) 


$$$$
C291-P200
     RDKit          3D

 64 66  0  0  0  0  0  0  0  0999 V2000
    5.5417   -2.9392   29.6368 C   0  0  0  0  0  0  0  0  0  0  0  0
    4.4940   -2.6684   28.5739 C   0  0  0  0  0  0  0  0  0  0  0  0
    3.5911   -3.7766   28.5177 O   0  0  0  0  0  0  0  0  0  0  0  0
    3.9914   -4.8184   27.7645 C   0  0  0  0  0  0  0  0  0  0  0  0
    5.0030   -4.8732   27.0808 O   0  0  0  0  0  0  0  0  0  0  0  0
    3.1013   -5.9931   27.9074 C   0  0  0  0  0  0  0  0  0  0  0  0
    2.0735   -6.2189   28.7474 C   0  0  0  0  0  0  0  0  0  0  0  0
    1.4773   -5.2994   29.7871 C   0  0  0  0  0  0  0  0  0  0  0  0
    0.5614   -4.2120   29.2045 C   0  0  0  0  0  0  0  0  0  0  0  0
    0.1255   -3.2199   30.2756 C   0  0  0  0  0  0  0  0  0  0  0  0
   -0.5135   -3.9171   31.4752 C   0  0  0  0  0  0  0  0  0  0  0  0
    0.3429   -5.0712   32.0603 C   0  0  0  0  0  0  0  0  0  0  0  0
   -0.5101   -5.7142   33.1917 C   0  0  0  0  0  0  0  0  0  0  0  0
    0.1676   -6.6965   34.1408 C   0  0  0  0  0  0  0  0  0  0  0  0
    0.6425   -6.0885   35.4422 N   0  0  0  0  0  0  0  0  0  0  0  0
    1.0703   -7.2897   36.5359 S   0  0  0  0  0  0  0  0  0  0  0  0
    2.2073   -7.9758   35.9575 O   0  0  0  0  0  0  0  0  0  0  0  0
   -0.1472   -7.9945   36.8340 O   0  0  0  0  0  0  0  0  0  0  0  0
    1.5935   -6.4961   37.9176 N   0  0  0  0  0  0  0  0  0  0  0  0
    0.7347   -5.4427   38.5406 C   0  0  0  0  0  0  0  0  0  0  0  0
   -0.2300   -5.9637   39.6082 C   0  0  0  0  0  0  0  0  0  0  0  0
    0.3673   -6.8516   40.6116 N   0  0  0  0  0  0  0  0  0  0  0  0
    1.0520   -7.9549   39.9142 C   0  0  0  0  0  0  0  0  0  0  0  0
    2.1375   -7.4403   38.9528 C   0  0  0  0  0  0  0  0  0  0  0  0
    1.5544   -4.9223   35.3480 C   0  0  0  0  0  0  0  0  0  0  0  0
    2.7982   -5.0990   34.4775 C   0  0  0  0  0  0  0  0  0  0  0  0
    2.5309   -5.3618   33.0594 N   0  0  0  0  0  0  0  0  0  0  0  0
    1.5851   -4.4275   32.5316 N   0  0  0  0  0  0  0  0  0  0  0  0
    0.6821   -6.0454   30.8979 C   0  0  0  0  0  0  0  0  0  0  0  0
    5.0664   -3.1492   30.6010 H   0  0  0  0  0  0  0  0  0  0  0  0
    6.2069   -2.0787   29.7519 H   0  0  0  0  0  0  0  0  0  0  0  0
    6.1475   -3.8149   29.3835 H   0  0  0  0  0  0  0  0  0  0  0  0
    4.9482   -2.4685   27.5966 H   0  0  0  0  0  0  0  0  0  0  0  0
    3.9068   -1.7857   28.8471 H   0  0  0  0  0  0  0  0  0  0  0  0
    3.3989   -6.7786   27.2166 H   0  0  0  0  0  0  0  0  0  0  0  0
    1.6478   -7.2148   28.7258 H   0  0  0  0  0  0  0  0  0  0  0  0
    2.3358   -4.8120   30.2603 H   0  0  0  0  0  0  0  0  0  0  0  0
   -0.3457   -4.6577   28.7892 H   0  0  0  0  0  0  0  0  0  0  0  0
    1.0478   -3.6700   28.3868 H   0  0  0  0  0  0  0  0  0  0  0  0
   -0.5920   -2.5111   29.8452 H   0  0  0  0  0  0  0  0  0  0  0  0
    0.9892   -2.6259   30.5982 H   0  0  0  0  0  0  0  0  0  0  0  0
   -1.4895   -4.3047   31.1741 H   0  0  0  0  0  0  0  0  0  0  0  0
   -0.7224   -3.1612   32.2448 H   0  0  0  0  0  0  0  0  0  0  0  0
   -0.9733   -4.9224   33.7928 H   0  0  0  0  0  0  0  0  0  0  0  0
   -1.3374   -6.2475   32.7047 H   0  0  0  0  0  0  0  0  0  0  0  0
    0.9665   -7.2583   33.6516 H   0  0  0  0  0  0  0  0  0  0  0  0
   -0.6040   -7.4338   34.4018 H   0  0  0  0  0  0  0  0  0  0  0  0
    1.4127   -4.7072   38.9923 H   0  0  0  0  0  0  0  0  0  0  0  0
    0.1623   -4.9020   37.7809 H   0  0  0  0  0  0  0  0  0  0  0  0
   -1.0301   -6.4910   39.0995 H   0  0  0  0  0  0  0  0  0  0  0  0
   -0.6972   -5.1155   40.1208 H   0  0  0  0  0  0  0  0  0  0  0  0
    1.0568   -6.3295   41.1509 H   0  0  0  0  0  0  0  0  0  0  0  0
    0.3135   -8.5630   39.3838 H   0  0  0  0  0  0  0  0  0  0  0  0
    1.5152   -8.6050   40.6645 H   0  0  0  0  0  0  0  0  0  0  0  0
    2.6507   -8.2858   38.4819 H   0  0  0  0  0  0  0  0  0  0  0  0
    2.9089   -6.8989   39.5158 H   0  0  0  0  0  0  0  0  0  0  0  0
    0.9554   -4.0592   35.0361 H   0  0  0  0  0  0  0  0  0  0  0  0
    1.9058   -4.6246   36.3390 H   0  0  0  0  0  0  0  0  0  0  0  0
    3.4149   -5.9169   34.8638 H   0  0  0  0  0  0  0  0  0  0  0  0
    3.4075   -4.1894   34.5575 H   0  0  0  0  0  0  0  0  0  0  0  0
    3.4208   -5.2784   32.5584 H   0  0  0  0  0  0  0  0  0  0  0  0
    1.3929   -3.5976   33.0971 H   0  0  0  0  0  0  0  0  0  0  0  0
   -0.2411   -6.4666   30.4771 H   0  0  0  0  0  0  0  0  0  0  0  0
    1.2498   -6.8928   31.2820 H   0  0  0  0  0  0  0  0  0  0  0  0
  1  2  1  0
  2  3  1  0
  3  4  1  0
  4  5  2  0
  4  6  1  0
  6  7  2  3
  7  8  1  0
  8  9  1  0
  9 10  1  0
 10 11  1  0
 11 12  1  0
 12 13  1  0
 13 14  1  0
 14 15  1  0
 15 16  1  0
 16 17  2  0
 16 18  2  0
 16 19  1  0
 19 20  1  0
 20 21  1  0
 21 22  1  0
 22 23  1  0
 23 24  1  0
 15 25  1  0
 25 26  1  0
 26 27  1  0
 27 28  1  0
 12 29  1  0
 29  8  1  0
 28 12  1  0
 24 19  1  0
  1 30  1  0
  1 31  1  0
  1 32  1  0
  2 33  1  0
  2 34  1  0
  6 35  1  0
  7 36  1  0
  8 37  1  0
  9 38  1  0
  9 39  1  0
 10 40  1  0
 10 41  1  0
 11 42  1  0
 11 43  1  0
 13 44  1  0
 13 45  1  0
 14 46  1  0
 14 47  1  0
 20 48  1  0
 20 49  1  0
 21 50  1  0
 21 51  1  0
 22 52  1  0
 23 53  1  0
 23 54  1  0
 24 55  1  0
 24 56  1  0
 25 57  1  0
 25 58  1  0
 26 59  1  0
 26 60  1  0
 27 61  1  0
 28 62  1  0
 29 63  1  0
 29 64  1  0
M  END
>  <Energy>  (205) 
-13.970422611319819

>  <compound_id>  (205) 
291

>  <target_id>  (205) 
1

>  <reference_id>  (205) 
200

>  <inspiration_ids>  (205) 
[200, 164]

>  <energy_score>  (205) 
-82.10721471542287

>  <distance_score>  (205) 
1.8093833066319478

>  <path>  (205) 
/opt/xchem-fragalysis-2/maxwin/BulkDock/SCRATCH/505737/C291-P200/C291-P200.minimised.mol

>  <scratch_subdir>  (205) 
/opt/xchem-fragalysis-2/maxwin/BulkDock/SCRATCH/505737/C291-P200

>  <fragmenstein_runtime>  (205) 
5.492645502090454

>  <fragmenstein_outcome>  (205) 
too moved

>  <fragmenstein_mode>  (205) 
expansion

>  <fragmenstein_error>  (205) 


$$$$
C291-P164
     RDKit          3D

 64 66  0  0  0  0  0  0  0  0999 V2000
    5.8996   -2.8061   29.4550 C   0  0  0  0  0  0  0  0  0  0  0  0
    4.5901   -2.4524   28.7814 C   0  0  0  0  0  0  0  0  0  0  0  0
    3.7790   -3.6300   28.7625 O   0  0  0  0  0  0  0  0  0  0  0  0
    3.8783   -4.4068   27.6679 C   0  0  0  0  0  0  0  0  0  0  0  0
    4.5061   -4.1655   26.6496 O   0  0  0  0  0  0  0  0  0  0  0  0
    3.1954   -5.7038   27.8668 C   0  0  0  0  0  0  0  0  0  0  0  0
    2.2729   -6.0541   28.7809 C   0  0  0  0  0  0  0  0  0  0  0  0
    1.6285   -5.2106   29.8605 C   0  0  0  0  0  0  0  0  0  0  0  0
    0.7208   -4.0809   29.3460 C   0  0  0  0  0  0  0  0  0  0  0  0
    0.1963   -3.2152   30.4887 C   0  0  0  0  0  0  0  0  0  0  0  0
   -0.4740   -4.0435   31.5853 C   0  0  0  0  0  0  0  0  0  0  0  0
    0.4038   -5.2120   32.0987 C   0  0  0  0  0  0  0  0  0  0  0  0
   -0.4448   -6.0315   33.1040 C   0  0  0  0  0  0  0  0  0  0  0  0
    0.3087   -7.0207   33.9927 C   0  0  0  0  0  0  0  0  0  0  0  0
    0.6307   -6.5239   35.3730 N   0  0  0  0  0  0  0  0  0  0  0  0
   -0.7544   -6.3239   36.3348 S   0  0  0  0  0  0  0  0  0  0  0  0
   -1.6391   -7.4056   35.9637 O   0  0  0  0  0  0  0  0  0  0  0  0
   -1.1846   -4.9501   36.2452 O   0  0  0  0  0  0  0  0  0  0  0  0
   -0.1725   -6.5893   37.8684 N   0  0  0  0  0  0  0  0  0  0  0  0
    0.0921   -5.4485   38.7724 C   0  0  0  0  0  0  0  0  0  0  0  0
   -0.0304   -5.9011   40.2406 C   0  0  0  0  0  0  0  0  0  0  0  0
    0.8262   -7.0531   40.5714 N   0  0  0  0  0  0  0  0  0  0  0  0
    0.5195   -8.1715   39.6546 C   0  0  0  0  0  0  0  0  0  0  0  0
    0.6304   -7.7926   38.1635 C   0  0  0  0  0  0  0  0  0  0  0  0
    1.5916   -5.3931   35.4930 C   0  0  0  0  0  0  0  0  0  0  0  0
    2.8241   -5.4547   34.5812 C   0  0  0  0  0  0  0  0  0  0  0  0
    2.5867   -5.5037   33.1307 N   0  0  0  0  0  0  0  0  0  0  0  0
    1.5844   -4.5675   32.7144 N   0  0  0  0  0  0  0  0  0  0  0  0
    0.8101   -6.0573   30.8671 C   0  0  0  0  0  0  0  0  0  0  0  0
    5.7225   -3.2195   30.4537 H   0  0  0  0  0  0  0  0  0  0  0  0
    6.5386   -1.9234   29.5478 H   0  0  0  0  0  0  0  0  0  0  0  0
    6.4397   -3.5695   28.8854 H   0  0  0  0  0  0  0  0  0  0  0  0
    4.7477   -2.0413   27.7782 H   0  0  0  0  0  0  0  0  0  0  0  0
    4.0573   -1.6969   29.3674 H   0  0  0  0  0  0  0  0  0  0  0  0
    3.5329   -6.4417   27.1423 H   0  0  0  0  0  0  0  0  0  0  0  0
    1.9757   -7.0949   28.7757 H   0  0  0  0  0  0  0  0  0  0  0  0
    2.4639   -4.7613   30.4076 H   0  0  0  0  0  0  0  0  0  0  0  0
   -0.1461   -4.4895   28.8215 H   0  0  0  0  0  0  0  0  0  0  0  0
    1.2438   -3.4410   28.6290 H   0  0  0  0  0  0  0  0  0  0  0  0
   -0.5240   -2.4893   30.0930 H   0  0  0  0  0  0  0  0  0  0  0  0
    1.0224   -2.6299   30.9103 H   0  0  0  0  0  0  0  0  0  0  0  0
   -1.4136   -4.4371   31.1938 H   0  0  0  0  0  0  0  0  0  0  0  0
   -0.7535   -3.3744   32.4105 H   0  0  0  0  0  0  0  0  0  0  0  0
   -1.0239   -5.3404   33.7221 H   0  0  0  0  0  0  0  0  0  0  0  0
   -1.1866   -6.6014   32.5278 H   0  0  0  0  0  0  0  0  0  0  0  0
    1.2058   -7.4215   33.5242 H   0  0  0  0  0  0  0  0  0  0  0  0
   -0.3180   -7.9129   34.1011 H   0  0  0  0  0  0  0  0  0  0  0  0
    1.0957   -5.0527   38.5867 H   0  0  0  0  0  0  0  0  0  0  0  0
   -0.6311   -4.6433   38.6118 H   0  0  0  0  0  0  0  0  0  0  0  0
   -1.0733   -6.1557   40.4655 H   0  0  0  0  0  0  0  0  0  0  0  0
    0.2366   -5.0665   40.8982 H   0  0  0  0  0  0  0  0  0  0  0  0
    1.8015   -6.7895   40.4413 H   0  0  0  0  0  0  0  0  0  0  0  0
   -0.4892   -8.5379   39.8756 H   0  0  0  0  0  0  0  0  0  0  0  0
    1.2077   -8.9958   39.8704 H   0  0  0  0  0  0  0  0  0  0  0  0
    0.2840   -8.6211   37.5497 H   0  0  0  0  0  0  0  0  0  0  0  0
    1.6788   -7.5974   37.9097 H   0  0  0  0  0  0  0  0  0  0  0  0
    1.0753   -4.4385   35.3502 H   0  0  0  0  0  0  0  0  0  0  0  0
    1.9749   -5.3897   36.5189 H   0  0  0  0  0  0  0  0  0  0  0  0
    3.4122   -6.3421   34.8437 H   0  0  0  0  0  0  0  0  0  0  0  0
    3.4554   -4.5846   34.8024 H   0  0  0  0  0  0  0  0  0  0  0  0
    3.4739   -5.2952   32.6596 H   0  0  0  0  0  0  0  0  0  0  0  0
    1.3018   -3.8607   33.3993 H   0  0  0  0  0  0  0  0  0  0  0  0
   -0.0856   -6.4582   30.3736 H   0  0  0  0  0  0  0  0  0  0  0  0
    1.3721   -6.9244   31.2034 H   0  0  0  0  0  0  0  0  0  0  0  0
  1  2  1  0
  2  3  1  0
  3  4  1  0
  4  5  2  0
  4  6  1  0
  6  7  2  3
  7  8  1  0
  8  9  1  0
  9 10  1  0
 10 11  1  0
 11 12  1  0
 12 13  1  0
 13 14  1  0
 14 15  1  0
 15 16  1  0
 16 17  2  0
 16 18  2  0
 16 19  1  0
 19 20  1  0
 20 21  1  0
 21 22  1  0
 22 23  1  0
 23 24  1  0
 15 25  1  0
 25 26  1  0
 26 27  1  0
 27 28  1  0
 12 29  1  0
 29  8  1  0
 28 12  1  0
 24 19  1  0
  1 30  1  0
  1 31  1  0
  1 32  1  0
  2 33  1  0
  2 34  1  0
  6 35  1  0
  7 36  1  0
  8 37  1  0
  9 38  1  0
  9 39  1  0
 10 40  1  0
 10 41  1  0
 11 42  1  0
 11 43  1  0
 13 44  1  0
 13 45  1  0
 14 46  1  0
 14 47  1  0
 20 48  1  0
 20 49  1  0
 21 50  1  0
 21 51  1  0
 22 52  1  0
 23 53  1  0
 23 54  1  0
 24 55  1  0
 24 56  1  0
 25 57  1  0
 25 58  1  0
 26 59  1  0
 26 60  1  0
 27 61  1  0
 28 62  1  0
 29 63  1  0
 29 64  1  0
M  END
>  <Energy>  (206) 
-12.626822080305899

>  <compound_id>  (206) 
291

>  <target_id>  (206) 
1

>  <reference_id>  (206) 
164

>  <inspiration_ids>  (206) 
[200, 164]

>  <energy_score>  (206) 
-80.76361418440612

>  <distance_score>  (206) 
1.7485480522805876

>  <path>  (206) 
/opt/xchem-fragalysis-2/maxwin/BulkDock/SCRATCH/505737/C291-P164/C291-P164.minimised.mol

>  <scratch_subdir>  (206) 
/opt/xchem-fragalysis-2/maxwin/BulkDock/SCRATCH/505737/C291-P164

>  <fragmenstein_runtime>  (206) 
5.846736192703247

>  <fragmenstein_outcome>  (206) 
too moved

>  <fragmenstein_mode>  (206) 
expansion

>  <fragmenstein_error>  (206) 


$$$$
C292-P200
     RDKit          3D

 56 59  0  0  0  0  0  0  0  0999 V2000
    4.0804   -1.6178   29.7299 C   0  0  0  0  0  0  0  0  0  0  0  0
    4.8580   -2.4247   28.6995 C   0  0  0  0  0  0  0  0  0  0  0  0
    5.1109   -3.7866   29.1828 N   0  0  0  0  0  0  0  0  0  0  0  0
    6.4130   -4.3306   28.7740 C   0  0  0  0  0  0  0  0  0  0  0  0
    7.5943   -3.3677   29.0951 C   0  0  0  0  0  0  0  0  0  0  0  0
    8.4062   -4.6172   29.4900 C   0  0  0  0  0  0  0  0  0  0  0  0
    7.0526   -5.2823   29.8571 C   0  0  0  0  0  0  0  0  0  0  0  0
    6.7173   -5.1267   31.3877 C   0  0  0  0  0  0  0  0  0  0  0  0
    7.2983   -5.8241   32.3412 N   0  0  0  0  0  0  0  0  0  0  0  0
    6.5823   -5.6234   33.5057 N   0  0  0  0  0  0  0  0  0  0  0  0
    5.5853   -4.8052   33.2350 C   0  0  0  0  0  0  0  0  0  0  0  0
    4.4765   -4.5201   34.0974 C   0  0  0  0  0  0  0  0  0  0  0  0
    4.1985   -5.1270   35.3082 C   0  0  0  0  0  0  0  0  0  0  0  0
    3.0013   -4.6377   35.9101 C   0  0  0  0  0  0  0  0  0  0  0  0
    2.4045   -3.6621   35.1446 C   0  0  0  0  0  0  0  0  0  0  0  0
    3.2686   -3.3685   33.6991 S   0  0  0  0  0  0  0  0  0  0  0  0
    5.7197   -4.3745   31.9425 N   0  0  0  0  0  0  0  0  0  0  0  0
    3.9753   -4.7109   29.1206 C   0  0  0  0  0  0  0  0  0  0  0  0
    3.4883   -4.7531   30.4429 O   0  0  0  0  0  0  0  0  0  0  0  0
    4.3730   -6.0563   28.8807 O   0  0  0  0  0  0  0  0  0  0  0  0
    2.8291   -4.4435   28.1453 C   0  0  0  0  0  0  0  0  0  0  0  0
    3.3041   -4.5741   26.4595 Cl  0  0  0  0  0  0  0  0  0  0  0  0
    1.5230   -4.2068   28.3847 C   0  0  0  0  0  0  0  0  0  0  0  0
    0.8156   -4.2307   29.6682 C   0  0  0  0  0  0  0  0  0  0  0  0
    0.3608   -3.0423   30.2464 C   0  0  0  0  0  0  0  0  0  0  0  0
   -0.2969   -3.0570   31.4817 C   0  0  0  0  0  0  0  0  0  0  0  0
   -0.5005   -4.2603   32.1548 C   0  0  0  0  0  0  0  0  0  0  0  0
   -0.0566   -5.4466   31.5692 C   0  0  0  0  0  0  0  0  0  0  0  0
   -0.2213   -6.7479   32.2567 C   0  0  0  0  0  0  0  0  0  0  0  0
    0.4743   -6.8228   33.5175 N   0  0  0  0  0  0  0  0  0  0  0  0
   -0.8706   -7.5678   31.6727 O   0  0  0  0  0  0  0  0  0  0  0  0
    0.5650   -5.4429   30.3181 C   0  0  0  0  0  0  0  0  0  0  0  0
    3.9304   -0.5956   29.3668 H   0  0  0  0  0  0  0  0  0  0  0  0
    3.0961   -2.0415   29.9337 H   0  0  0  0  0  0  0  0  0  0  0  0
    4.6288   -1.5551   30.6759 H   0  0  0  0  0  0  0  0  0  0  0  0
    4.3602   -2.3919   27.7276 H   0  0  0  0  0  0  0  0  0  0  0  0
    5.7876   -1.8700   28.5357 H   0  0  0  0  0  0  0  0  0  0  0  0
    6.4547   -4.7150   27.7466 H   0  0  0  0  0  0  0  0  0  0  0  0
    7.9961   -2.8081   28.2453 H   0  0  0  0  0  0  0  0  0  0  0  0
    7.4472   -2.6756   29.9340 H   0  0  0  0  0  0  0  0  0  0  0  0
    8.9172   -5.0980   28.6469 H   0  0  0  0  0  0  0  0  0  0  0  0
    9.1297   -4.4744   30.2975 H   0  0  0  0  0  0  0  0  0  0  0  0
    7.0079   -6.3423   29.5783 H   0  0  0  0  0  0  0  0  0  0  0  0
    4.8384   -5.8870   35.7456 H   0  0  0  0  0  0  0  0  0  0  0  0
    2.6191   -4.9688   36.8693 H   0  0  0  0  0  0  0  0  0  0  0  0
    1.5098   -3.0971   35.3716 H   0  0  0  0  0  0  0  0  0  0  0  0
    5.0354   -3.8464   31.4179 H   0  0  0  0  0  0  0  0  0  0  0  0
    3.0768   -5.6278   30.4692 H   0  0  0  0  0  0  0  0  0  0  0  0
    4.7365   -6.0283   27.9773 H   0  0  0  0  0  0  0  0  0  0  0  0
    0.8646   -3.9752   27.5529 H   0  0  0  0  0  0  0  0  0  0  0  0
    0.5171   -2.0909   29.7394 H   0  0  0  0  0  0  0  0  0  0  0  0
   -0.6465   -2.1222   31.9158 H   0  0  0  0  0  0  0  0  0  0  0  0
   -1.0213   -4.2648   33.1103 H   0  0  0  0  0  0  0  0  0  0  0  0
    1.0289   -5.9528   33.6512 H   0  0  0  0  0  0  0  0  0  0  0  0
    0.8326   -5.8784   33.7637 H   0  0  0  0  0  0  0  0  0  0  0  0
    0.8675   -6.3865   29.8718 H   0  0  0  0  0  0  0  0  0  0  0  0
  1  2  1  0
  2  3  1  0
  3  4  1  0
  4  5  1  0
  5  6  1  0
  6  7  1  0
  7  8  1  0
  8  9  2  0
  9 10  1  0
 10 11  2  0
 11 12  1  0
 12 13  2  0
 13 14  1  0
 14 15  2  0
 15 16  1  0
 11 17  1  0
  3 18  1  0
 18 19  1  0
 18 20  1  0
 18 21  1  0
 21 22  1  0
 21 23  2  3
 23 24  1  0
 24 25  2  0
 25 26  1  0
 26 27  2  0
 27 28  1  0
 28 29  1  0
 29 30  1  0
 29 31  2  0
 28 32  2  0
  7  4  1  0
 17  8  1  0
 32 24  1  0
 16 12  1  0
  1 33  1  0
  1 34  1  0
  1 35  1  0
  2 36  1  0
  2 37  1  0
  4 38  1  0
  5 39  1  0
  5 40  1  0
  6 41  1  0
  6 42  1  0
  7 43  1  0
 13 44  1  0
 14 45  1  0
 15 46  1  0
 17 47  1  0
 19 48  1  0
 20 49  1  0
 23 50  1  0
 25 51  1  0
 26 52  1  0
 27 53  1  0
 30 54  1  0
 30 55  1  0
 32 56  1  0
M  END
>  <Energy>  (207) 
138.2866539758144

>  <compound_id>  (207) 
292

>  <target_id>  (207) 
1

>  <reference_id>  (207) 
200

>  <inspiration_ids>  (207) 
[200, 165]

>  <energy_score>  (207) 
101.99302436831326

>  <distance_score>  (207) 
1.7754321268624949

>  <path>  (207) 
/opt/xchem-fragalysis-2/maxwin/BulkDock/SCRATCH/505737/C292-P200/C292-P200.minimised.mol

>  <scratch_subdir>  (207) 
/opt/xchem-fragalysis-2/maxwin/BulkDock/SCRATCH/505737/C292-P200

>  <fragmenstein_runtime>  (207) 
10.961772918701172

>  <fragmenstein_outcome>  (207) 
too moved

>  <fragmenstein_mode>  (207) 
expansion

>  <fragmenstein_error>  (207) 


$$$$
C292-P165
     RDKit          3D

 56 59  0  0  0  0  0  0  0  0999 V2000
    4.2432   -1.6609   29.9679 C   0  0  0  0  0  0  0  0  0  0  0  0
    4.8563   -2.4096   28.7928 C   0  0  0  0  0  0  0  0  0  0  0  0
    5.2646   -3.7713   29.1837 N   0  0  0  0  0  0  0  0  0  0  0  0
    6.4945   -4.2187   28.5019 C   0  0  0  0  0  0  0  0  0  0  0  0
    7.6450   -3.1746   28.6842 C   0  0  0  0  0  0  0  0  0  0  0  0
    8.6069   -4.3420   28.9425 C   0  0  0  0  0  0  0  0  0  0  0  0
    7.3868   -5.1695   29.3915 C   0  0  0  0  0  0  0  0  0  0  0  0
    7.1806   -5.2216   30.9539 C   0  0  0  0  0  0  0  0  0  0  0  0
    7.6308   -6.1975   31.7121 N   0  0  0  0  0  0  0  0  0  0  0  0
    7.0378   -6.0755   32.9533 N   0  0  0  0  0  0  0  0  0  0  0  0
    6.2314   -5.0331   32.9220 C   0  0  0  0  0  0  0  0  0  0  0  0
    5.2579   -4.6960   33.9199 C   0  0  0  0  0  0  0  0  0  0  0  0
    4.9630   -5.4199   35.0609 C   0  0  0  0  0  0  0  0  0  0  0  0
    3.9037   -4.8435   35.8230 C   0  0  0  0  0  0  0  0  0  0  0  0
    3.4274   -3.6886   35.2459 C   0  0  0  0  0  0  0  0  0  0  0  0
    4.2517   -3.3113   33.7969 S   0  0  0  0  0  0  0  0  0  0  0  0
    6.3918   -4.4019   31.7163 N   0  0  0  0  0  0  0  0  0  0  0  0
    4.1543   -4.7366   29.2581 C   0  0  0  0  0  0  0  0  0  0  0  0
    3.7879   -4.7465   30.6200 O   0  0  0  0  0  0  0  0  0  0  0  0
    4.5470   -6.0743   29.0021 O   0  0  0  0  0  0  0  0  0  0  0  0
    2.9354   -4.5266   28.3669 C   0  0  0  0  0  0  0  0  0  0  0  0
    3.3102   -4.6908   26.6568 Cl  0  0  0  0  0  0  0  0  0  0  0  0
    1.6414   -4.3239   28.6888 C   0  0  0  0  0  0  0  0  0  0  0  0
    0.9652   -4.3815   29.9889 C   0  0  0  0  0  0  0  0  0  0  0  0
    0.6440   -3.2222   30.6921 C   0  0  0  0  0  0  0  0  0  0  0  0
   -0.1038   -3.2980   31.8717 C   0  0  0  0  0  0  0  0  0  0  0  0
   -0.5619   -4.5303   32.3455 C   0  0  0  0  0  0  0  0  0  0  0  0
   -0.2448   -5.6980   31.6462 C   0  0  0  0  0  0  0  0  0  0  0  0
   -0.8077   -7.0386   32.0058 C   0  0  0  0  0  0  0  0  0  0  0  0
   -0.7823   -7.3445   33.4108 N   0  0  0  0  0  0  0  0  0  0  0  0
   -1.1983   -7.6827   31.0719 O   0  0  0  0  0  0  0  0  0  0  0  0
    0.5278   -5.6179   30.4800 C   0  0  0  0  0  0  0  0  0  0  0  0
    3.9568   -0.6506   29.6571 H   0  0  0  0  0  0  0  0  0  0  0  0
    3.3488   -2.1515   30.3533 H   0  0  0  0  0  0  0  0  0  0  0  0
    4.9614   -1.5614   30.7884 H   0  0  0  0  0  0  0  0  0  0  0  0
    4.1848   -2.3835   27.9310 H   0  0  0  0  0  0  0  0  0  0  0  0
    5.7065   -1.7997   28.4717 H   0  0  0  0  0  0  0  0  0  0  0  0
    6.3679   -4.5530   27.4654 H   0  0  0  0  0  0  0  0  0  0  0  0
    7.8810   -2.5727   27.8014 H   0  0  0  0  0  0  0  0  0  0  0  0
    7.5682   -2.5078   29.5528 H   0  0  0  0  0  0  0  0  0  0  0  0
    9.0838   -4.7262   28.0328 H   0  0  0  0  0  0  0  0  0  0  0  0
    9.3835   -4.1568   29.6897 H   0  0  0  0  0  0  0  0  0  0  0  0
    7.4277   -6.1948   29.0000 H   0  0  0  0  0  0  0  0  0  0  0  0
    5.4891   -6.3290   35.3322 H   0  0  0  0  0  0  0  0  0  0  0  0
    3.5247   -5.2502   36.7531 H   0  0  0  0  0  0  0  0  0  0  0  0
    2.6423   -3.0401   35.6105 H   0  0  0  0  0  0  0  0  0  0  0  0
    5.8025   -3.6648   31.3570 H   0  0  0  0  0  0  0  0  0  0  0  0
    3.0359   -5.3494   30.6801 H   0  0  0  0  0  0  0  0  0  0  0  0
    5.3381   -6.1901   29.5429 H   0  0  0  0  0  0  0  0  0  0  0  0
    0.9187   -4.1322   27.9029 H   0  0  0  0  0  0  0  0  0  0  0  0
    0.9376   -2.2452   30.3124 H   0  0  0  0  0  0  0  0  0  0  0  0
   -0.3689   -2.3819   32.3974 H   0  0  0  0  0  0  0  0  0  0  0  0
   -1.2107   -4.5410   33.2183 H   0  0  0  0  0  0  0  0  0  0  0  0
   -0.2655   -6.5977   33.9096 H   0  0  0  0  0  0  0  0  0  0  0  0
   -0.4819   -6.5031   33.9339 H   0  0  0  0  0  0  0  0  0  0  0  0
    0.7373   -6.5321   29.9314 H   0  0  0  0  0  0  0  0  0  0  0  0
  1  2  1  0
  2  3  1  0
  3  4  1  0
  4  5  1  0
  5  6  1  0
  6  7  1  0
  7  8  1  0
  8  9  2  0
  9 10  1  0
 10 11  2  0
 11 12  1  0
 12 13  2  0
 13 14  1  0
 14 15  2  0
 15 16  1  0
 11 17  1  0
  3 18  1  0
 18 19  1  0
 18 20  1  0
 18 21  1  0
 21 22  1  0
 21 23  2  3
 23 24  1  0
 24 25  2  0
 25 26  1  0
 26 27  2  0
 27 28  1  0
 28 29  1  0
 29 30  1  0
 29 31  2  0
 28 32  2  0
  7  4  1  0
 17  8  1  0
 32 24  1  0
 16 12  1  0
  1 33  1  0
  1 34  1  0
  1 35  1  0
  2 36  1  0
  2 37  1  0
  4 38  1  0
  5 39  1  0
  5 40  1  0
  6 41  1  0
  6 42  1  0
  7 43  1  0
 13 44  1  0
 14 45  1  0
 15 46  1  0
 17 47  1  0
 19 48  1  0
 20 49  1  0
 23 50  1  0
 25 51  1  0
 26 52  1  0
 27 53  1  0
 30 54  1  0
 30 55  1  0
 32 56  1  0
M  END
>  <Energy>  (208) 
142.50340244880385

>  <compound_id>  (208) 
292

>  <target_id>  (208) 
1

>  <reference_id>  (208) 
165

>  <inspiration_ids>  (208) 
[200, 165]

>  <energy_score>  (208) 
106.20977284130373

>  <distance_score>  (208) 
1.8202679202548124

>  <path>  (208) 
/opt/xchem-fragalysis-2/maxwin/BulkDock/SCRATCH/505737/C292-P165/C292-P165.minimised.mol

>  <scratch_subdir>  (208) 
/opt/xchem-fragalysis-2/maxwin/BulkDock/SCRATCH/505737/C292-P165

>  <fragmenstein_runtime>  (208) 
10.013325214385986

>  <fragmenstein_outcome>  (208) 
too moved

>  <fragmenstein_mode>  (208) 
expansion

>  <fragmenstein_error>  (208) 


$$$$
C294-P200
     RDKit          3D

 51 52  0  0  0  0  0  0  0  0999 V2000
    4.4298   -2.5448   28.1872 C   0  0  0  0  0  0  0  0  0  0  0  0
    3.1638   -3.1513   27.6099 C   0  0  0  0  0  0  0  0  0  0  0  0
    3.3444   -4.5745   27.4617 O   0  0  0  0  0  0  0  0  0  0  0  0
    2.8827   -5.4898   28.3355 C   0  0  0  0  0  0  0  0  0  0  0  0
    2.9035   -6.6978   28.0894 O   0  0  0  0  0  0  0  0  0  0  0  0
    2.4171   -5.0107   29.6585 C   0  0  0  0  0  0  0  0  0  0  0  0
    1.4507   -5.7346   30.2442 C   0  0  0  0  0  0  0  0  0  0  0  0
    1.1267   -5.8079   31.7099 C   0  0  0  0  0  0  0  0  0  0  0  0
    1.3083   -4.5965   32.6215 C   0  0  0  0  0  0  0  0  0  0  0  0
    0.5650   -4.7577   33.9743 C   0  0  0  0  0  0  0  0  0  0  0  0
    0.3840   -6.2257   34.4981 C   0  0  0  0  0  0  0  0  0  0  0  0
   -0.4414   -6.2250   35.8092 C   0  0  0  0  0  0  0  0  0  0  0  0
    0.2256   -5.6058   37.0295 C   0  0  0  0  0  0  0  0  0  0  0  0
    1.5348   -6.3189   37.3362 C   0  0  0  0  0  0  0  0  0  0  0  0
    2.3228   -5.5640   38.7497 S   0  0  0  0  0  0  0  0  0  0  0  0
    3.6914   -6.0331   38.8358 O   0  0  0  0  0  0  0  0  0  0  0  0
    1.4291   -5.6094   39.8872 O   0  0  0  0  0  0  0  0  0  0  0  0
    2.4341   -4.0246   38.3600 F   0  0  0  0  0  0  0  0  0  0  0  0
    2.4480   -6.2612   36.1145 C   0  0  0  0  0  0  0  0  0  0  0  0
    1.7764   -6.8464   34.8745 C   0  0  0  0  0  0  0  0  0  0  0  0
   -0.2534   -7.1066   33.3423 C   0  0  0  0  0  0  0  0  0  0  0  0
   -1.5288   -7.8728   33.3468 C   0  0  0  0  0  0  0  0  0  0  0  0
   -2.1687   -8.3615   33.1388 N   0  0  0  0  0  0  0  0  0  0  0  0
   -2.4063   -7.6562   34.9040 O   0  0  0  0  0  0  0  0  0  0  0  0
   -0.2464   -6.4162   31.9546 C   0  0  0  0  0  0  0  0  0  0  0  0
    5.2878   -2.7687   27.5444 H   0  0  0  0  0  0  0  0  0  0  0  0
    4.6586   -2.9591   29.1732 H   0  0  0  0  0  0  0  0  0  0  0  0
    4.3327   -1.4591   28.2764 H   0  0  0  0  0  0  0  0  0  0  0  0
    2.9867   -2.7472   26.6081 H   0  0  0  0  0  0  0  0  0  0  0  0
    2.2835   -2.9136   28.2152 H   0  0  0  0  0  0  0  0  0  0  0  0
    2.9982   -4.2621   30.1763 H   0  0  0  0  0  0  0  0  0  0  0  0
    0.9866   -6.5184   29.6461 H   0  0  0  0  0  0  0  0  0  0  0  0
    1.8522   -6.5487   32.0574 H   0  0  0  0  0  0  0  0  0  0  0  0
    2.3781   -4.4464   32.8144 H   0  0  0  0  0  0  0  0  0  0  0  0
    0.9514   -3.6827   32.1309 H   0  0  0  0  0  0  0  0  0  0  0  0
   -0.4353   -4.3177   33.8568 H   0  0  0  0  0  0  0  0  0  0  0  0
    1.0710   -4.1302   34.7161 H   0  0  0  0  0  0  0  0  0  0  0  0
   -0.6401   -7.2636   36.0967 H   0  0  0  0  0  0  0  0  0  0  0  0
   -1.3902   -5.7032   35.6517 H   0  0  0  0  0  0  0  0  0  0  0  0
    0.3890   -4.5334   36.8723 H   0  0  0  0  0  0  0  0  0  0  0  0
   -0.4544   -5.6871   37.8866 H   0  0  0  0  0  0  0  0  0  0  0  0
    1.3465   -7.3628   37.6154 H   0  0  0  0  0  0  0  0  0  0  0  0
    2.7582   -5.2278   35.9171 H   0  0  0  0  0  0  0  0  0  0  0  0
    3.3703   -6.8217   36.3105 H   0  0  0  0  0  0  0  0  0  0  0  0
    2.4833   -6.7590   34.0459 H   0  0  0  0  0  0  0  0  0  0  0  0
    1.6465   -7.9209   35.0583 H   0  0  0  0  0  0  0  0  0  0  0  0
    0.4578   -7.9266   33.2176 H   0  0  0  0  0  0  0  0  0  0  0  0
   -2.5252   -9.0264   32.4349 H   0  0  0  0  0  0  0  0  0  0  0  0
   -2.6089   -8.8899   32.3683 H   0  0  0  0  0  0  0  0  0  0  0  0
   -1.0333   -5.6528   31.8928 H   0  0  0  0  0  0  0  0  0  0  0  0
   -0.4879   -7.1595   31.1811 H   0  0  0  0  0  0  0  0  0  0  0  0
  1  2  1  0
  2  3  1  0
  3  4  1  0
  4  5  2  0
  4  6  1  0
  6  7  2  3
  7  8  1  0
  8  9  1  0
  9 10  1  0
 10 11  1  0
 11 12  1  0
 12 13  1  0
 13 14  1  0
 14 15  1  0
 15 16  2  0
 15 17  2  0
 15 18  1  0
 14 19  1  0
 19 20  1  0
 11 21  1  0
 21 22  1  0
 22 23  1  0
 22 24  2  0
 21 25  1  0
 25  8  1  0
 20 11  1  0
  1 26  1  0
  1 27  1  0
  1 28  1  0
  2 29  1  0
  2 30  1  0
  6 31  1  0
  7 32  1  0
  8 33  1  0
  9 34  1  0
  9 35  1  0
 10 36  1  0
 10 37  1  0
 12 38  1  0
 12 39  1  0
 13 40  1  0
 13 41  1  0
 14 42  1  0
 19 43  1  0
 19 44  1  0
 20 45  1  0
 20 46  1  0
 21 47  1  0
 23 48  1  0
 23 49  1  0
 25 50  1  0
 25 51  1  0
M  END
>  <Energy>  (209) 
751.56157393789636

>  <compound_id>  (209) 
294

>  <target_id>  (209) 
1

>  <reference_id>  (209) 
200

>  <inspiration_ids>  (209) 
[200, 167]

>  <energy_score>  (209) 
659.1479891382711

>  <distance_score>  (209) 
2.604429493649082

>  <path>  (209) 
/opt/xchem-fragalysis-2/maxwin/BulkDock/SCRATCH/505737/C294-P200/C294-P200.minimised.mol

>  <scratch_subdir>  (209) 
/opt/xchem-fragalysis-2/maxwin/BulkDock/SCRATCH/505737/C294-P200

>  <fragmenstein_runtime>  (209) 
7.463213682174683

>  <fragmenstein_outcome>  (209) 
too moved

>  <fragmenstein_mode>  (209) 
expansion

>  <fragmenstein_error>  (209) 


$$$$
C294-P167
     RDKit          3D

 51 52  0  0  0  0  0  0  0  0999 V2000
    4.5811   -4.0639   27.5660 C   0  0  0  0  0  0  0  0  0  0  0  0
    3.7171   -3.0156   28.2402 C   0  0  0  0  0  0  0  0  0  0  0  0
    2.4335   -3.5604   28.5843 O   0  0  0  0  0  0  0  0  0  0  0  0
    2.3843   -4.2172   29.7685 C   0  0  0  0  0  0  0  0  0  0  0  0
    3.3323   -4.4998   30.4820 O   0  0  0  0  0  0  0  0  0  0  0  0
    0.9713   -4.5638   30.0452 C   0  0  0  0  0  0  0  0  0  0  0  0
    0.4740   -4.8249   31.2666 C   0  0  0  0  0  0  0  0  0  0  0  0
    1.2001   -4.7085   32.5895 C   0  0  0  0  0  0  0  0  0  0  0  0
    0.3750   -3.9898   33.6714 C   0  0  0  0  0  0  0  0  0  0  0  0
   -0.1020   -4.9469   34.7647 C   0  0  0  0  0  0  0  0  0  0  0  0
    1.0410   -5.7038   35.5337 C   0  0  0  0  0  0  0  0  0  0  0  0
    0.3697   -6.9727   36.1367 C   0  0  0  0  0  0  0  0  0  0  0  0
    1.1054   -7.6846   37.2692 C   0  0  0  0  0  0  0  0  0  0  0  0
    1.6056   -6.7461   38.3539 C   0  0  0  0  0  0  0  0  0  0  0  0
    0.3079   -6.3211   39.5059 S   0  0  0  0  0  0  0  0  0  0  0  0
   -0.6491   -5.4171   38.8975 O   0  0  0  0  0  0  0  0  0  0  0  0
    0.9212   -5.9837   40.7769 O   0  0  0  0  0  0  0  0  0  0  0  0
   -0.4706   -7.6772   39.7655 F   0  0  0  0  0  0  0  0  0  0  0  0
    2.3083   -5.5110   37.8036 C   0  0  0  0  0  0  0  0  0  0  0  0
    1.5472   -4.7965   36.6863 C   0  0  0  0  0  0  0  0  0  0  0  0
    2.2024   -5.9873   34.5211 C   0  0  0  0  0  0  0  0  0  0  0  0
    3.0393   -7.2483   34.8256 C   0  0  0  0  0  0  0  0  0  0  0  0
    4.3348   -6.9128   35.3802 N   0  0  0  0  0  0  0  0  0  0  0  0
    2.5516   -8.3159   34.5687 O   0  0  0  0  0  0  0  0  0  0  0  0
    1.6618   -6.0843   33.0775 C   0  0  0  0  0  0  0  0  0  0  0  0
    5.5347   -3.6337   27.2469 H   0  0  0  0  0  0  0  0  0  0  0  0
    4.0694   -4.4753   26.6894 H   0  0  0  0  0  0  0  0  0  0  0  0
    4.7848   -4.9036   28.2376 H   0  0  0  0  0  0  0  0  0  0  0  0
    3.5384   -2.1849   27.5502 H   0  0  0  0  0  0  0  0  0  0  0  0
    4.2142   -2.5966   29.1231 H   0  0  0  0  0  0  0  0  0  0  0  0
    0.3205   -4.5973   29.1779 H   0  0  0  0  0  0  0  0  0  0  0  0
   -0.5751   -5.1038   31.3373 H   0  0  0  0  0  0  0  0  0  0  0  0
    2.0870   -4.0795   32.4496 H   0  0  0  0  0  0  0  0  0  0  0  0
    0.9930   -3.2111   34.1369 H   0  0  0  0  0  0  0  0  0  0  0  0
   -0.4849   -3.4681   33.2344 H   0  0  0  0  0  0  0  0  0  0  0  0
   -0.7597   -5.6871   34.2904 H   0  0  0  0  0  0  0  0  0  0  0  0
   -0.7307   -4.3961   35.4749 H   0  0  0  0  0  0  0  0  0  0  0  0
    0.1409   -7.6955   35.3434 H   0  0  0  0  0  0  0  0  0  0  0  0
   -0.6031   -6.6714   36.5370 H   0  0  0  0  0  0  0  0  0  0  0  0
    0.4409   -8.4483   37.6914 H   0  0  0  0  0  0  0  0  0  0  0  0
    1.9602   -8.2444   36.8856 H   0  0  0  0  0  0  0  0  0  0  0  0
    2.3217   -7.3026   38.9734 H   0  0  0  0  0  0  0  0  0  0  0  0
    2.4973   -4.7937   38.6122 H   0  0  0  0  0  0  0  0  0  0  0  0
    3.2956   -5.8028   37.4417 H   0  0  0  0  0  0  0  0  0  0  0  0
    0.6964   -4.2771   37.1418 H   0  0  0  0  0  0  0  0  0  0  0  0
    2.1789   -3.9920   36.2885 H   0  0  0  0  0  0  0  0  0  0  0  0
    2.8705   -5.1166   34.5081 H   0  0  0  0  0  0  0  0  0  0  0  0
    4.3661   -5.8952   35.5738 H   0  0  0  0  0  0  0  0  0  0  0  0
    4.4572   -5.8839   35.3545 H   0  0  0  0  0  0  0  0  0  0  0  0
    0.8588   -6.8304   33.0118 H   0  0  0  0  0  0  0  0  0  0  0  0
    2.4468   -6.4244   32.4072 H   0  0  0  0  0  0  0  0  0  0  0  0
  1  2  1  0
  2  3  1  0
  3  4  1  0
  4  5  2  0
  4  6  1  0
  6  7  2  3
  7  8  1  0
  8  9  1  0
  9 10  1  0
 10 11  1  0
 11 12  1  0
 12 13  1  0
 13 14  1  0
 14 15  1  0
 15 16  2  0
 15 17  2  0
 15 18  1  0
 14 19  1  0
 19 20  1  0
 11 21  1  0
 21 22  1  0
 22 23  1  0
 22 24  2  0
 21 25  1  0
 25  8  1  0
 20 11  1  0
  1 26  1  0
  1 27  1  0
  1 28  1  0
  2 29  1  0
  2 30  1  0
  6 31  1  0
  7 32  1  0
  8 33  1  0
  9 34  1  0
  9 35  1  0
 10 36  1  0
 10 37  1  0
 12 38  1  0
 12 39  1  0
 13 40  1  0
 13 41  1  0
 14 42  1  0
 19 43  1  0
 19 44  1  0
 20 45  1  0
 20 46  1  0
 21 47  1  0
 23 48  1  0
 23 49  1  0
 25 50  1  0
 25 51  1  0
M  END
>  <Energy>  (210) 
202.89168911567066

>  <compound_id>  (210) 
294

>  <target_id>  (210) 
1

>  <reference_id>  (210) 
167

>  <inspiration_ids>  (210) 
[200, 167]

>  <energy_score>  (210) 
110.47810431604606

>  <distance_score>  (210) 
3.6732517082577645

>  <path>  (210) 
/opt/xchem-fragalysis-2/maxwin/BulkDock/SCRATCH/505737/C294-P167/C294-P167.minimised.mol

>  <scratch_subdir>  (210) 
/opt/xchem-fragalysis-2/maxwin/BulkDock/SCRATCH/505737/C294-P167

>  <fragmenstein_runtime>  (210) 
6.413288354873657

>  <fragmenstein_outcome>  (210) 
too moved

>  <fragmenstein_mode>  (210) 
expansion

>  <fragmenstein_error>  (210) 


$$$$
C296-P200
     RDKit          3D

 48 49  0  0  0  0  0  0  0  0999 V2000
    5.2499   -4.0046   32.8950 C   0  0  0  0  0  0  0  0  0  0  0  0
    5.0460   -3.1306   31.6770 C   0  0  0  0  0  0  0  0  0  0  0  0
    4.1097   -3.7406   30.7822 O   0  0  0  0  0  0  0  0  0  0  0  0
    4.6218   -4.6553   29.9349 C   0  0  0  0  0  0  0  0  0  0  0  0
    5.7751   -5.0573   29.9022 O   0  0  0  0  0  0  0  0  0  0  0  0
    3.6140   -5.1467   28.9777 C   0  0  0  0  0  0  0  0  0  0  0  0
    2.2759   -5.1886   29.0746 C   0  0  0  0  0  0  0  0  0  0  0  0
    1.3984   -4.8001   30.1909 C   0  0  0  0  0  0  0  0  0  0  0  0
    1.5885   -5.4162   31.4357 C   0  0  0  0  0  0  0  0  0  0  0  0
    0.7474   -5.1712   32.5250 C   0  0  0  0  0  0  0  0  0  0  0  0
    1.0646   -5.8705   33.8134 C   0  0  0  0  0  0  0  0  0  0  0  0
    0.9760   -5.0264   34.9781 N   0  0  0  0  0  0  0  0  0  0  0  0
    1.3689   -7.0256   33.7066 O   0  0  0  0  0  0  0  0  0  0  0  0
   -0.3449   -4.3229   32.3660 C   0  0  0  0  0  0  0  0  0  0  0  0
   -0.5352   -3.6770   31.1406 C   0  0  0  0  0  0  0  0  0  0  0  0
    0.3329   -3.8899   30.0440 C   0  0  0  0  0  0  0  0  0  0  0  0
    0.0184   -3.1475   28.7587 C   0  0  0  0  0  0  0  0  0  0  0  0
    1.1657   -2.7761   27.9158 N   0  0  0  0  0  0  0  0  0  0  0  0
    2.0368   -1.4050   28.3810 S   0  0  0  0  0  0  0  0  0  0  0  0
    1.5027   -0.2963   27.6241 O   0  0  0  0  0  0  0  0  0  0  0  0
    2.0900   -1.3653   29.8267 O   0  0  0  0  0  0  0  0  0  0  0  0
    3.6666   -1.7670   27.7741 C   0  0  0  0  0  0  0  0  0  0  0  0
    3.8565   -2.5220   26.6103 C   0  0  0  0  0  0  0  0  0  0  0  0
    5.1474   -2.9231   26.2457 C   0  0  0  0  0  0  0  0  0  0  0  0
    6.2336   -2.5434   27.0253 C   0  0  0  0  0  0  0  0  0  0  0  0
    7.5084   -2.9251   26.7283 O   0  0  0  0  0  0  0  0  0  0  0  0
    6.0507   -1.7530   28.1540 C   0  0  0  0  0  0  0  0  0  0  0  0
    4.7652   -1.3684   28.5377 C   0  0  0  0  0  0  0  0  0  0  0  0
    4.2904   -4.2395   33.3674 H   0  0  0  0  0  0  0  0  0  0  0  0
    5.7149   -4.9578   32.6267 H   0  0  0  0  0  0  0  0  0  0  0  0
    5.8902   -3.5044   33.6273 H   0  0  0  0  0  0  0  0  0  0  0  0
    5.9966   -2.9184   31.1743 H   0  0  0  0  0  0  0  0  0  0  0  0
    4.6190   -2.1690   31.9798 H   0  0  0  0  0  0  0  0  0  0  0  0
    4.0785   -5.4984   28.0598 H   0  0  0  0  0  0  0  0  0  0  0  0
    1.7421   -5.5243   28.1946 H   0  0  0  0  0  0  0  0  0  0  0  0
    2.4192   -6.0920   31.5851 H   0  0  0  0  0  0  0  0  0  0  0  0
    0.5680   -4.1147   34.7040 H   0  0  0  0  0  0  0  0  0  0  0  0
    0.7951   -4.0512   34.6756 H   0  0  0  0  0  0  0  0  0  0  0  0
   -1.0605   -4.1632   33.1694 H   0  0  0  0  0  0  0  0  0  0  0  0
   -1.3751   -2.9903   31.0388 H   0  0  0  0  0  0  0  0  0  0  0  0
   -0.5688   -2.2433   28.9641 H   0  0  0  0  0  0  0  0  0  0  0  0
   -0.6342   -3.7946   28.1662 H   0  0  0  0  0  0  0  0  0  0  0  0
    0.8479   -2.5383   26.9714 H   0  0  0  0  0  0  0  0  0  0  0  0
    3.0163   -2.8118   25.9858 H   0  0  0  0  0  0  0  0  0  0  0  0
    5.2931   -3.5216   25.3540 H   0  0  0  0  0  0  0  0  0  0  0  0
    7.5134   -3.5774   26.0012 H   0  0  0  0  0  0  0  0  0  0  0  0
    6.9108   -1.4613   28.7507 H   0  0  0  0  0  0  0  0  0  0  0  0
    4.6286   -0.7827   29.4434 H   0  0  0  0  0  0  0  0  0  0  0  0
  1  2  1  0
  2  3  1  0
  3  4  1  0
  4  5  2  0
  4  6  1  0
  6  7  2  3
  7  8  1  0
  8  9  2  0
  9 10  1  0
 10 11  1  0
 11 12  1  0
 11 13  2  0
 10 14  2  0
 14 15  1  0
 15 16  2  0
 16 17  1  0
 17 18  1  0
 18 19  1  0
 19 20  2  0
 19 21  2  0
 19 22  1  0
 22 23  2  0
 23 24  1  0
 24 25  2  0
 25 26  1  0
 25 27  1  0
 27 28  2  0
 16  8  1  0
 28 22  1  0
  1 29  1  0
  1 30  1  0
  1 31  1  0
  2 32  1  0
  2 33  1  0
  6 34  1  0
  7 35  1  0
  9 36  1  0
 12 37  1  0
 12 38  1  0
 14 39  1  0
 15 40  1  0
 17 41  1  0
 17 42  1  0
 18 43  1  0
 23 44  1  0
 24 45  1  0
 26 46  1  0
 27 47  1  0
 28 48  1  0
M  END
>  <Energy>  (211) 
131.30715135410733

>  <compound_id>  (211) 
296

>  <target_id>  (211) 
1

>  <reference_id>  (211) 
200

>  <inspiration_ids>  (211) 
[200, 177]

>  <energy_score>  (211) 
122.86408708721905

>  <distance_score>  (211) 
2.9739091668693565

>  <path>  (211) 
/opt/xchem-fragalysis-2/maxwin/BulkDock/SCRATCH/505737/C296-P200/C296-P200.minimised.mol

>  <scratch_subdir>  (211) 
/opt/xchem-fragalysis-2/maxwin/BulkDock/SCRATCH/505737/C296-P200

>  <fragmenstein_runtime>  (211) 
8.599653005599976

>  <fragmenstein_outcome>  (211) 
too moved

>  <fragmenstein_mode>  (211) 
expansion

>  <fragmenstein_error>  (211) 


$$$$
C296-P177
     RDKit          3D

 48 49  0  0  0  0  0  0  0  0999 V2000
    7.2717   -2.1909   31.2901 C   0  0  0  0  0  0  0  0  0  0  0  0
    6.5394   -1.3810   30.2386 C   0  0  0  0  0  0  0  0  0  0  0  0
    5.7898   -2.2661   29.3988 O   0  0  0  0  0  0  0  0  0  0  0  0
    4.5713   -2.6355   29.8631 C   0  0  0  0  0  0  0  0  0  0  0  0
    4.0405   -2.2399   30.8927 O   0  0  0  0  0  0  0  0  0  0  0  0
    4.0493   -3.6632   28.9181 C   0  0  0  0  0  0  0  0  0  0  0  0
    2.9388   -4.4154   29.0310 C   0  0  0  0  0  0  0  0  0  0  0  0
    1.9974   -4.4370   30.1620 C   0  0  0  0  0  0  0  0  0  0  0  0
    2.5184   -4.4337   31.4569 C   0  0  0  0  0  0  0  0  0  0  0  0
    1.7079   -4.1855   32.5587 C   0  0  0  0  0  0  0  0  0  0  0  0
    2.3625   -3.8257   33.8408 C   0  0  0  0  0  0  0  0  0  0  0  0
    3.3214   -2.7436   33.7100 N   0  0  0  0  0  0  0  0  0  0  0  0
    2.0415   -4.4729   34.7961 O   0  0  0  0  0  0  0  0  0  0  0  0
    0.3285   -4.1712   32.4228 C   0  0  0  0  0  0  0  0  0  0  0  0
   -0.2161   -4.3279   31.1486 C   0  0  0  0  0  0  0  0  0  0  0  0
    0.6049   -4.4467   30.0036 C   0  0  0  0  0  0  0  0  0  0  0  0
   -0.0447   -4.5371   28.6510 C   0  0  0  0  0  0  0  0  0  0  0  0
   -0.8383   -3.3921   28.2674 N   0  0  0  0  0  0  0  0  0  0  0  0
   -0.3220   -1.8138   28.2967 S   0  0  0  0  0  0  0  0  0  0  0  0
   -1.2792   -1.0633   27.5108 O   0  0  0  0  0  0  0  0  0  0  0  0
   -0.0343   -1.4554   29.6675 O   0  0  0  0  0  0  0  0  0  0  0  0
    1.1997   -1.8164   27.3957 C   0  0  0  0  0  0  0  0  0  0  0  0
    1.3317   -2.6081   26.2520 C   0  0  0  0  0  0  0  0  0  0  0  0
    2.5305   -2.5977   25.5454 C   0  0  0  0  0  0  0  0  0  0  0  0
    3.5582   -1.7602   25.9614 C   0  0  0  0  0  0  0  0  0  0  0  0
    4.6723   -1.6481   25.1918 O   0  0  0  0  0  0  0  0  0  0  0  0
    3.4374   -0.9664   27.0941 C   0  0  0  0  0  0  0  0  0  0  0  0
    2.2519   -1.0021   27.8278 C   0  0  0  0  0  0  0  0  0  0  0  0
    6.5700   -2.7172   31.9450 H   0  0  0  0  0  0  0  0  0  0  0  0
    7.9015   -2.9534   30.8200 H   0  0  0  0  0  0  0  0  0  0  0  0
    7.9027   -1.5441   31.9063 H   0  0  0  0  0  0  0  0  0  0  0  0
    7.2603   -0.8607   29.5999 H   0  0  0  0  0  0  0  0  0  0  0  0
    5.8944   -0.6190   30.6908 H   0  0  0  0  0  0  0  0  0  0  0  0
    4.6552   -3.7835   28.0207 H   0  0  0  0  0  0  0  0  0  0  0  0
    2.7289   -5.1064   28.2169 H   0  0  0  0  0  0  0  0  0  0  0  0
    3.5914   -4.5219   31.6204 H   0  0  0  0  0  0  0  0  0  0  0  0
    3.2507   -2.3379   32.7458 H   0  0  0  0  0  0  0  0  0  0  0  0
    3.4232   -2.4965   32.6959 H   0  0  0  0  0  0  0  0  0  0  0  0
   -0.3119   -3.9959   33.2849 H   0  0  0  0  0  0  0  0  0  0  0  0
   -1.2942   -4.2687   31.0391 H   0  0  0  0  0  0  0  0  0  0  0  0
   -0.6957   -5.4182   28.6624 H   0  0  0  0  0  0  0  0  0  0  0  0
    0.6608   -4.7654   27.8512 H   0  0  0  0  0  0  0  0  0  0  0  0
   -1.6888   -3.5405   27.7066 H   0  0  0  0  0  0  0  0  0  0  0  0
    0.4891   -3.1762   25.8768 H   0  0  0  0  0  0  0  0  0  0  0  0
    2.6380   -3.1672   24.6290 H   0  0  0  0  0  0  0  0  0  0  0  0
    4.4000   -1.0918   24.4159 H   0  0  0  0  0  0  0  0  0  0  0  0
    4.2507   -0.3100   27.3884 H   0  0  0  0  0  0  0  0  0  0  0  0
    2.1438   -0.3744   28.7097 H   0  0  0  0  0  0  0  0  0  0  0  0
  1  2  1  0
  2  3  1  0
  3  4  1  0
  4  5  2  0
  4  6  1  0
  6  7  2  3
  7  8  1  0
  8  9  2  0
  9 10  1  0
 10 11  1  0
 11 12  1  0
 11 13  2  0
 10 14  2  0
 14 15  1  0
 15 16  2  0
 16 17  1  0
 17 18  1  0
 18 19  1  0
 19 20  2  0
 19 21  2  0
 19 22  1  0
 22 23  2  0
 23 24  1  0
 24 25  2  0
 25 26  1  0
 25 27  1  0
 27 28  2  0
 16  8  1  0
 28 22  1  0
  1 29  1  0
  1 30  1  0
  1 31  1  0
  2 32  1  0
  2 33  1  0
  6 34  1  0
  7 35  1  0
  9 36  1  0
 12 37  1  0
 12 38  1  0
 14 39  1  0
 15 40  1  0
 17 41  1  0
 17 42  1  0
 18 43  1  0
 23 44  1  0
 24 45  1  0
 26 46  1  0
 27 47  1  0
 28 48  1  0
M  END
>  <Energy>  (212) 
123.81789367335526

>  <compound_id>  (212) 
296

>  <target_id>  (212) 
1

>  <reference_id>  (212) 
177

>  <inspiration_ids>  (212) 
[200, 177]

>  <energy_score>  (212) 
115.374829406466

>  <distance_score>  (212) 
3.57976821341947

>  <path>  (212) 
/opt/xchem-fragalysis-2/maxwin/BulkDock/SCRATCH/505737/C296-P177/C296-P177.minimised.mol

>  <scratch_subdir>  (212) 
/opt/xchem-fragalysis-2/maxwin/BulkDock/SCRATCH/505737/C296-P177

>  <fragmenstein_runtime>  (212) 
10.704503774642944

>  <fragmenstein_outcome>  (212) 
too moved

>  <fragmenstein_mode>  (212) 
expansion

>  <fragmenstein_error>  (212) 


$$$$
C297-P200
     RDKit          3D

 63 65  0  0  0  0  0  0  0  0999 V2000
    7.6165   -7.7452   39.0206 C   0  0  0  0  0  0  0  0  0  0  0  0
    7.5905   -8.1996   37.5734 C   0  0  0  0  0  0  0  0  0  0  0  0
    6.3339   -7.8583   36.9701 O   0  0  0  0  0  0  0  0  0  0  0  0
    6.2589   -6.6139   36.4384 C   0  0  0  0  0  0  0  0  0  0  0  0
    7.1387   -5.7704   36.4136 O   0  0  0  0  0  0  0  0  0  0  0  0
    4.8999   -6.4461   35.8743 C   0  0  0  0  0  0  0  0  0  0  0  0
    4.5459   -5.2935   35.2818 C   0  0  0  0  0  0  0  0  0  0  0  0
    3.2147   -4.9537   34.6420 C   0  0  0  0  0  0  0  0  0  0  0  0
    2.5479   -3.8088   35.4252 C   0  0  0  0  0  0  0  0  0  0  0  0
    1.2614   -3.3243   34.7345 C   0  0  0  0  0  0  0  0  0  0  0  0
    1.6986   -2.6166   33.4984 N   0  0  0  0  0  0  0  0  0  0  0  0
    0.6161   -1.7287   32.5465 S   0  0  0  0  0  0  0  0  0  0  0  0
   -0.7165   -2.2419   32.7597 O   0  0  0  0  0  0  0  0  0  0  0  0
    0.9719   -0.3401   32.7074 O   0  0  0  0  0  0  0  0  0  0  0  0
    1.1057   -2.2323   30.9085 C   0  0  0  0  0  0  0  0  0  0  0  0
    0.1211   -2.5557   29.9684 C   0  0  0  0  0  0  0  0  0  0  0  0
    0.4935   -3.1321   28.7543 C   0  0  0  0  0  0  0  0  0  0  0  0
    1.8381   -3.3765   28.4958 C   0  0  0  0  0  0  0  0  0  0  0  0
    2.2280   -3.9362   27.3176 O   0  0  0  0  0  0  0  0  0  0  0  0
    2.8214   -3.0492   29.4201 C   0  0  0  0  0  0  0  0  0  0  0  0
    2.4584   -2.4615   30.6303 C   0  0  0  0  0  0  0  0  0  0  0  0
    0.3140   -4.5250   34.5501 C   0  0  0  0  0  0  0  0  0  0  0  0
    0.8807   -5.7929   33.8377 C   0  0  0  0  0  0  0  0  0  0  0  0
    1.1160   -5.5454   32.3224 C   0  0  0  0  0  0  0  0  0  0  0  0
   -0.1221   -5.7752   31.4530 C   0  0  0  0  0  0  0  0  0  0  0  0
   -1.2108   -4.9091   31.7610 O   0  0  0  0  0  0  0  0  0  0  0  0
   -0.6041   -7.2218   31.5923 C   0  0  0  0  0  0  0  0  0  0  0  0
   -0.1311   -7.8970   32.7999 N   0  0  0  0  0  0  0  0  0  0  0  0
   -0.0459   -7.0639   34.0045 C   0  0  0  0  0  0  0  0  0  0  0  0
   -1.4468   -6.8203   34.5107 C   0  0  0  0  0  0  0  0  0  0  0  0
    2.2381   -6.1326   34.5218 C   0  0  0  0  0  0  0  0  0  0  0  0
    7.5274   -6.6565   39.0921 H   0  0  0  0  0  0  0  0  0  0  0  0
    8.5467   -8.0520   39.5069 H   0  0  0  0  0  0  0  0  0  0  0  0
    6.7719   -8.1708   39.5725 H   0  0  0  0  0  0  0  0  0  0  0  0
    7.6817   -9.2898   37.5279 H   0  0  0  0  0  0  0  0  0  0  0  0
    8.4310   -7.7821   37.0070 H   0  0  0  0  0  0  0  0  0  0  0  0
    4.2313   -7.2913   35.9747 H   0  0  0  0  0  0  0  0  0  0  0  0
    5.2887   -4.4940   35.2323 H   0  0  0  0  0  0  0  0  0  0  0  0
    3.4567   -4.6076   33.6289 H   0  0  0  0  0  0  0  0  0  0  0  0
    3.2488   -2.9709   35.5402 H   0  0  0  0  0  0  0  0  0  0  0  0
    2.3056   -4.1469   36.4422 H   0  0  0  0  0  0  0  0  0  0  0  0
    0.7848   -2.5815   35.3866 H   0  0  0  0  0  0  0  0  0  0  0  0
    2.4399   -1.9464   33.7304 H   0  0  0  0  0  0  0  0  0  0  0  0
   -0.9336   -2.3918   30.1795 H   0  0  0  0  0  0  0  0  0  0  0  0
   -0.2724   -3.4020   28.0348 H   0  0  0  0  0  0  0  0  0  0  0  0
    1.8661   -3.3566   26.6146 H   0  0  0  0  0  0  0  0  0  0  0  0
    3.8664   -3.2418   29.1935 H   0  0  0  0  0  0  0  0  0  0  0  0
    3.2299   -2.2169   31.3545 H   0  0  0  0  0  0  0  0  0  0  0  0
    0.0422   -4.8220   35.5732 H   0  0  0  0  0  0  0  0  0  0  0  0
   -0.6248   -4.2070   34.1004 H   0  0  0  0  0  0  0  0  0  0  0  0
    1.5050   -4.5521   32.1490 H   0  0  0  0  0  0  0  0  0  0  0  0
    1.9034   -6.2177   31.9596 H   0  0  0  0  0  0  0  0  0  0  0  0
    0.1371   -5.5946   30.4051 H   0  0  0  0  0  0  0  0  0  0  0  0
   -0.8783   -4.0526   32.0909 H   0  0  0  0  0  0  0  0  0  0  0  0
   -1.6970   -7.2738   31.5480 H   0  0  0  0  0  0  0  0  0  0  0  0
   -0.2308   -7.8024   30.7407 H   0  0  0  0  0  0  0  0  0  0  0  0
   -0.7653   -8.6803   32.9916 H   0  0  0  0  0  0  0  0  0  0  0  0
    0.4091   -7.7107   34.7654 H   0  0  0  0  0  0  0  0  0  0  0  0
   -1.9580   -6.1846   33.8020 H   0  0  0  0  0  0  0  0  0  0  0  0
   -1.4554   -6.3514   35.4977 H   0  0  0  0  0  0  0  0  0  0  0  0
   -2.0108   -7.7543   34.6099 H   0  0  0  0  0  0  0  0  0  0  0  0
    2.7199   -6.9565   33.9903 H   0  0  0  0  0  0  0  0  0  0  0  0
    2.0305   -6.5044   35.5360 H   0  0  0  0  0  0  0  0  0  0  0  0
  1  2  1  0
  2  3  1  0
  3  4  1  0
  4  5  2  0
  4  6  1  0
  6  7  2  3
  7  8  1  0
  8  9  1  0
  9 10  1  0
 10 11  1  0
 11 12  1  0
 12 13  2  0
 12 14  2  0
 12 15  1  0
 15 16  2  0
 16 17  1  0
 17 18  2  0
 18 19  1  0
 18 20  1  0
 20 21  2  0
 10 22  1  0
 22 23  1  0
 23 24  1  0
 24 25  1  0
 25 26  1  0
 25 27  1  0
 27 28  1  0
 28 29  1  0
 29 30  1  0
 23 31  1  0
 31  8  1  0
 21 15  1  0
 29 23  1  0
  1 32  1  0
  1 33  1  0
  1 34  1  0
  2 35  1  0
  2 36  1  0
  6 37  1  0
  7 38  1  0
  8 39  1  0
  9 40  1  0
  9 41  1  0
 10 42  1  0
 11 43  1  0
 16 44  1  0
 17 45  1  0
 19 46  1  0
 20 47  1  0
 21 48  1  0
 22 49  1  0
 22 50  1  0
 24 51  1  0
 24 52  1  0
 25 53  1  0
 26 54  1  0
 27 55  1  0
 27 56  1  0
 28 57  1  0
 29 58  1  0
 30 59  1  0
 30 60  1  0
 30 61  1  0
 31 62  1  0
 31 63  1  0
M  END
>  <Energy>  (213) 
22.186929695239183

>  <compound_id>  (213) 
297

>  <target_id>  (213) 
1

>  <reference_id>  (213) 
200

>  <inspiration_ids>  (213) 
[200, 183]

>  <energy_score>  (213) 
-77.97018397299823

>  <distance_score>  (213) 
3.6439706647782244

>  <path>  (213) 
/opt/xchem-fragalysis-2/maxwin/BulkDock/SCRATCH/505737/C297-P200/C297-P200.minimised.mol

>  <scratch_subdir>  (213) 
/opt/xchem-fragalysis-2/maxwin/BulkDock/SCRATCH/505737/C297-P200

>  <fragmenstein_runtime>  (213) 
23.39114546775818

>  <fragmenstein_outcome>  (213) 
too moved

>  <fragmenstein_mode>  (213) 
expansion

>  <fragmenstein_error>  (213) 


$$$$
C297-P183
     RDKit          3D

 63 65  0  0  0  0  0  0  0  0999 V2000
    8.9135   -1.9234   35.8318 C   0  0  0  0  0  0  0  0  0  0  0  0
    8.7157   -3.4275   35.8139 C   0  0  0  0  0  0  0  0  0  0  0  0
    7.3295   -3.7470   36.0039 O   0  0  0  0  0  0  0  0  0  0  0  0
    6.5754   -3.7684   34.8783 C   0  0  0  0  0  0  0  0  0  0  0  0
    6.9497   -3.5559   33.7370 O   0  0  0  0  0  0  0  0  0  0  0  0
    5.1886   -4.1073   35.2666 C   0  0  0  0  0  0  0  0  0  0  0  0
    4.2117   -4.1113   34.3459 C   0  0  0  0  0  0  0  0  0  0  0  0
    2.7708   -4.4602   34.6371 C   0  0  0  0  0  0  0  0  0  0  0  0
    1.8601   -3.2665   34.3473 C   0  0  0  0  0  0  0  0  0  0  0  0
    0.3827   -3.5269   34.6182 C   0  0  0  0  0  0  0  0  0  0  0  0
   -0.5899   -2.9968   33.6191 N   0  0  0  0  0  0  0  0  0  0  0  0
   -0.3408   -1.6766   32.5881 S   0  0  0  0  0  0  0  0  0  0  0  0
   -1.6679   -1.1952   32.2720 O   0  0  0  0  0  0  0  0  0  0  0  0
    0.6646   -0.8140   33.1641 O   0  0  0  0  0  0  0  0  0  0  0  0
    0.3074   -2.4340   31.1082 C   0  0  0  0  0  0  0  0  0  0  0  0
    1.6860   -2.5448   30.9249 C   0  0  0  0  0  0  0  0  0  0  0  0
    2.2111   -3.3384   29.9056 C   0  0  0  0  0  0  0  0  0  0  0  0
    1.3576   -3.9524   29.0091 C   0  0  0  0  0  0  0  0  0  0  0  0
    1.8762   -4.7393   28.0249 O   0  0  0  0  0  0  0  0  0  0  0  0
   -0.0164   -3.7659   29.1197 C   0  0  0  0  0  0  0  0  0  0  0  0
   -0.5500   -3.0126   30.1744 C   0  0  0  0  0  0  0  0  0  0  0  0
    0.1329   -5.0254   34.7999 C   0  0  0  0  0  0  0  0  0  0  0  0
    0.8390   -5.9144   33.7214 C   0  0  0  0  0  0  0  0  0  0  0  0
    0.5134   -7.3639   34.0770 C   0  0  0  0  0  0  0  0  0  0  0  0
   -0.7759   -7.8572   33.4463 C   0  0  0  0  0  0  0  0  0  0  0  0
   -0.5660   -8.7205   32.3449 O   0  0  0  0  0  0  0  0  0  0  0  0
   -1.6385   -6.7706   32.9013 C   0  0  0  0  0  0  0  0  0  0  0  0
   -1.0939   -5.6464   32.1765 N   0  0  0  0  0  0  0  0  0  0  0  0
    0.3469   -5.6218   32.2701 C   0  0  0  0  0  0  0  0  0  0  0  0
    0.8566   -6.4337   31.0889 C   0  0  0  0  0  0  0  0  0  0  0  0
    2.3663   -5.6880   33.8071 C   0  0  0  0  0  0  0  0  0  0  0  0
    8.3733   -1.4463   35.0079 H   0  0  0  0  0  0  0  0  0  0  0  0
    9.9741   -1.6707   35.7467 H   0  0  0  0  0  0  0  0  0  0  0  0
    8.5214   -1.4951   36.7601 H   0  0  0  0  0  0  0  0  0  0  0  0
    9.2654   -3.8812   36.6451 H   0  0  0  0  0  0  0  0  0  0  0  0
    9.1041   -3.8720   34.8902 H   0  0  0  0  0  0  0  0  0  0  0  0
    5.0093   -4.3470   36.3075 H   0  0  0  0  0  0  0  0  0  0  0  0
    4.4541   -3.8481   33.3155 H   0  0  0  0  0  0  0  0  0  0  0  0
    2.6823   -4.7122   35.7028 H   0  0  0  0  0  0  0  0  0  0  0  0
    2.0289   -2.9889   33.3183 H   0  0  0  0  0  0  0  0  0  0  0  0
    2.1818   -2.4017   34.9430 H   0  0  0  0  0  0  0  0  0  0  0  0
    0.1200   -3.0382   35.5663 H   0  0  0  0  0  0  0  0  0  0  0  0
   -1.5656   -2.9967   33.9421 H   0  0  0  0  0  0  0  0  0  0  0  0
    2.3752   -2.0173   31.5809 H   0  0  0  0  0  0  0  0  0  0  0  0
    3.2896   -3.4339   29.8214 H   0  0  0  0  0  0  0  0  0  0  0  0
    2.8342   -4.5806   27.9914 H   0  0  0  0  0  0  0  0  0  0  0  0
   -0.6966   -4.2157   28.4048 H   0  0  0  0  0  0  0  0  0  0  0  0
   -1.6278   -2.9076   30.2636 H   0  0  0  0  0  0  0  0  0  0  0  0
    0.5142   -5.3129   35.7913 H   0  0  0  0  0  0  0  0  0  0  0  0
   -0.9399   -5.2043   34.8797 H   0  0  0  0  0  0  0  0  0  0  0  0
    1.3453   -7.9824   33.7769 H   0  0  0  0  0  0  0  0  0  0  0  0
    0.4494   -7.4828   35.1668 H   0  0  0  0  0  0  0  0  0  0  0  0
   -1.3491   -8.3844   34.2060 H   0  0  0  0  0  0  0  0  0  0  0  0
   -1.3806   -9.2399   32.2269 H   0  0  0  0  0  0  0  0  0  0  0  0
   -2.3204   -7.2599   32.2059 H   0  0  0  0  0  0  0  0  0  0  0  0
   -2.1299   -6.3738   33.7781 H   0  0  0  0  0  0  0  0  0  0  0  0
   -1.4231   -4.7828   32.6150 H   0  0  0  0  0  0  0  0  0  0  0  0
    0.6733   -4.6176   32.0598 H   0  0  0  0  0  0  0  0  0  0  0  0
    0.2444   -6.2936   30.1936 H   0  0  0  0  0  0  0  0  0  0  0  0
    0.8772   -7.4963   31.2744 H   0  0  0  0  0  0  0  0  0  0  0  0
    1.8722   -6.1224   30.8349 H   0  0  0  0  0  0  0  0  0  0  0  0
    2.7938   -5.6032   32.8023 H   0  0  0  0  0  0  0  0  0  0  0  0
    2.8663   -6.5567   34.2566 H   0  0  0  0  0  0  0  0  0  0  0  0
  1  2  1  0
  2  3  1  0
  3  4  1  0
  4  5  2  0
  4  6  1  0
  6  7  2  3
  7  8  1  0
  8  9  1  0
  9 10  1  0
 10 11  1  0
 11 12  1  0
 12 13  2  0
 12 14  2  0
 12 15  1  0
 15 16  2  0
 16 17  1  0
 17 18  2  0
 18 19  1  0
 18 20  1  0
 20 21  2  0
 10 22  1  0
 22 23  1  0
 23 24  1  0
 24 25  1  0
 25 26  1  0
 25 27  1  0
 27 28  1  0
 28 29  1  0
 29 30  1  0
 23 31  1  0
 31  8  1  0
 21 15  1  0
 29 23  1  0
  1 32  1  0
  1 33  1  0
  1 34  1  0
  2 35  1  0
  2 36  1  0
  6 37  1  0
  7 38  1  0
  8 39  1  0
  9 40  1  0
  9 41  1  0
 10 42  1  0
 11 43  1  0
 16 44  1  0
 17 45  1  0
 19 46  1  0
 20 47  1  0
 21 48  1  0
 22 49  1  0
 22 50  1  0
 24 51  1  0
 24 52  1  0
 25 53  1  0
 26 54  1  0
 27 55  1  0
 27 56  1  0
 28 57  1  0
 29 58  1  0
 30 59  1  0
 30 60  1  0
 30 61  1  0
 31 62  1  0
 31 63  1  0
M  END
>  <Energy>  (214) 
45.355477448939268

>  <compound_id>  (214) 
297

>  <target_id>  (214) 
1

>  <reference_id>  (214) 
183

>  <inspiration_ids>  (214) 
[200, 183]

>  <energy_score>  (214) 
-30.106959985888693

>  <distance_score>  (214) 
3.019149219234965

>  <path>  (214) 
/opt/xchem-fragalysis-2/maxwin/BulkDock/SCRATCH/505737/C297-P183/C297-P183.minimised.mol

>  <scratch_subdir>  (214) 
/opt/xchem-fragalysis-2/maxwin/BulkDock/SCRATCH/505737/C297-P183

>  <fragmenstein_runtime>  (214) 
19.772262573242188

>  <fragmenstein_outcome>  (214) 
too moved

>  <fragmenstein_mode>  (214) 
expansion

>  <fragmenstein_error>  (214) 


$$$$
C258-P200
     RDKit          3D

 57 59  0  0  0  0  0  0  0  0999 V2000
    5.8711   -4.3079   30.0985 C   0  0  0  0  0  0  0  0  0  0  0  0
    5.3009   -5.0392   28.8963 C   0  0  0  0  0  0  0  0  0  0  0  0
    3.8969   -4.7779   28.7599 O   0  0  0  0  0  0  0  0  0  0  0  0
    3.5920   -3.5956   28.1704 C   0  0  0  0  0  0  0  0  0  0  0  0
    4.3933   -2.7691   27.7607 O   0  0  0  0  0  0  0  0  0  0  0  0
    2.1363   -3.4178   28.0183 C   0  0  0  0  0  0  0  0  0  0  0  0
    1.1276   -3.8554   28.7899 C   0  0  0  0  0  0  0  0  0  0  0  0
    1.1779   -4.5832   30.0627 C   0  0  0  0  0  0  0  0  0  0  0  0
    2.0299   -4.2067   31.1017 C   0  0  0  0  0  0  0  0  0  0  0  0
    1.9979   -4.8882   32.3175 C   0  0  0  0  0  0  0  0  0  0  0  0
    2.8311   -4.4189   33.4253 N   0  0  0  0  0  0  0  0  0  0  0  0
    2.1474   -3.8371   34.6785 S   0  0  0  0  0  0  0  0  0  0  0  0
    0.9910   -4.4275   35.3178 O   0  0  0  0  0  0  0  0  0  0  0  0
    3.3962   -3.5126   35.9047 C   0  0  0  0  0  0  0  0  0  0  0  0
    2.8719   -2.6966   37.0690 C   0  0  0  0  0  0  0  0  0  0  0  0
    1.6150   -2.3456   34.0847 N   0  0  0  0  0  0  0  0  0  0  0  0
    0.2010   -2.1333   33.7984 C   0  0  0  0  0  0  0  0  0  0  0  0
    0.0125   -1.2039   32.6169 C   0  0  0  0  0  0  0  0  0  0  0  0
    0.5939    0.0859   32.6192 C   0  0  0  0  0  0  0  0  0  0  0  0
    0.4884    0.9221   31.5052 C   0  0  0  0  0  0  0  0  0  0  0  0
   -0.2092    0.4509   30.4146 C   0  0  0  0  0  0  0  0  0  0  0  0
   -0.8065   -0.7841   30.4109 C   0  0  0  0  0  0  0  0  0  0  0  0
   -0.7192   -1.6310   31.4928 C   0  0  0  0  0  0  0  0  0  0  0  0
   -1.4545   -1.0454   29.2468 O   0  0  0  0  0  0  0  0  0  0  0  0
   -1.1419    0.1447   28.4922 C   0  0  0  0  0  0  0  0  0  0  0  0
   -0.3991    1.1205   29.2493 O   0  0  0  0  0  0  0  0  0  0  0  0
    1.1368   -5.9623   32.5141 C   0  0  0  0  0  0  0  0  0  0  0  0
    0.2181   -6.2859   31.5223 C   0  0  0  0  0  0  0  0  0  0  0  0
   -0.8113   -7.3502   31.7108 C   0  0  0  0  0  0  0  0  0  0  0  0
   -1.4207   -7.3749   33.0185 N   0  0  0  0  0  0  0  0  0  0  0  0
   -0.9892   -8.0484   30.7526 O   0  0  0  0  0  0  0  0  0  0  0  0
    0.2534   -5.6049   30.3000 C   0  0  0  0  0  0  0  0  0  0  0  0
    5.3133   -4.5595   31.0056 H   0  0  0  0  0  0  0  0  0  0  0  0
    6.9220   -4.5717   30.2471 H   0  0  0  0  0  0  0  0  0  0  0  0
    5.8011   -3.2229   29.9756 H   0  0  0  0  0  0  0  0  0  0  0  0
    5.8390   -4.7821   27.9763 H   0  0  0  0  0  0  0  0  0  0  0  0
    5.4101   -6.1194   29.0389 H   0  0  0  0  0  0  0  0  0  0  0  0
    1.8951   -2.8149   27.1448 H   0  0  0  0  0  0  0  0  0  0  0  0
    0.1168   -3.6125   28.4555 H   0  0  0  0  0  0  0  0  0  0  0  0
    2.7127   -3.3697   30.9817 H   0  0  0  0  0  0  0  0  0  0  0  0
    3.7567   -4.4845   36.2563 H   0  0  0  0  0  0  0  0  0  0  0  0
    4.2217   -2.9906   35.4110 H   0  0  0  0  0  0  0  0  0  0  0  0
    2.5086   -1.7187   36.7381 H   0  0  0  0  0  0  0  0  0  0  0  0
    2.0449   -3.2086   37.5711 H   0  0  0  0  0  0  0  0  0  0  0  0
    3.6657   -2.5322   37.8041 H   0  0  0  0  0  0  0  0  0  0  0  0
    2.1455   -2.2327   33.2268 H   0  0  0  0  0  0  0  0  0  0  0  0
   -0.2986   -3.0828   33.5725 H   0  0  0  0  0  0  0  0  0  0  0  0
   -0.2982   -1.7081   34.6761 H   0  0  0  0  0  0  0  0  0  0  0  0
    1.1512    0.4308   33.4890 H   0  0  0  0  0  0  0  0  0  0  0  0
    0.9463    1.9052   31.4902 H   0  0  0  0  0  0  0  0  0  0  0  0
   -1.1901   -2.6069   31.4551 H   0  0  0  0  0  0  0  0  0  0  0  0
   -0.5435   -0.1408   27.6213 H   0  0  0  0  0  0  0  0  0  0  0  0
   -2.0750    0.6022   28.1468 H   0  0  0  0  0  0  0  0  0  0  0  0
    1.1849   -6.5109   33.4493 H   0  0  0  0  0  0  0  0  0  0  0  0
   -1.1047   -6.5438   33.5554 H   0  0  0  0  0  0  0  0  0  0  0  0
   -0.9359   -6.6933   33.6306 H   0  0  0  0  0  0  0  0  0  0  0  0
   -0.4637   -5.8748   29.5310 H   0  0  0  0  0  0  0  0  0  0  0  0
  1  2  1  0
  2  3  1  0
  3  4  1  0
  4  5  2  0
  4  6  1  0
  6  7  2  3
  7  8  1  0
  8  9  2  0
  9 10  1  0
 10 11  1  0
 11 12  2  0
 12 13  2  0
 12 14  1  0
 14 15  1  0
 12 16  1  0
 16 17  1  0
 17 18  1  0
 18 19  2  0
 19 20  1  0
 20 21  2  0
 21 22  1  0
 22 23  2  0
 22 24  1  0
 24 25  1  0
 25 26  1  0
 10 27  2  0
 27 28  1  0
 28 29  1  0
 29 30  1  0
 29 31  2  0
 28 32  2  0
 32  8  1  0
 23 18  1  0
 26 21  1  0
  1 33  1  0
  1 34  1  0
  1 35  1  0
  2 36  1  0
  2 37  1  0
  6 38  1  0
  7 39  1  0
  9 40  1  0
 14 41  1  0
 14 42  1  0
 15 43  1  0
 15 44  1  0
 15 45  1  0
 16 46  1  0
 17 47  1  0
 17 48  1  0
 19 49  1  0
 20 50  1  0
 23 51  1  0
 25 52  1  0
 25 53  1  0
 27 54  1  0
 30 55  1  0
 30 56  1  0
 32 57  1  0
M  END
>  <Energy>  (215) 
63.212076488911073

>  <compound_id>  (215) 
258

>  <target_id>  (215) 
1

>  <reference_id>  (215) 
200

>  <inspiration_ids>  (215) 
[200, 194]

>  <energy_score>  (215) 
82.95463126977563

>  <distance_score>  (215) 
2.3252325106761176

>  <path>  (215) 
/opt/xchem-fragalysis-2/maxwin/BulkDock/SCRATCH/505737/C258-P200/C258-P200.minimised.mol

>  <scratch_subdir>  (215) 
/opt/xchem-fragalysis-2/maxwin/BulkDock/SCRATCH/505737/C258-P200

>  <fragmenstein_runtime>  (215) 
14.467257022857666

>  <fragmenstein_outcome>  (215) 
too moved

>  <fragmenstein_mode>  (215) 
expansion

>  <fragmenstein_error>  (215) 


$$$$
C258-P194
     RDKit          3D

 57 59  0  0  0  0  0  0  0  0999 V2000
    7.3221   -3.5430   30.8934 C   0  0  0  0  0  0  0  0  0  0  0  0
    6.2397   -2.4840   30.8321 C   0  0  0  0  0  0  0  0  0  0  0  0
    5.2915   -2.8318   29.8154 O   0  0  0  0  0  0  0  0  0  0  0  0
    4.2999   -3.6685   30.2071 C   0  0  0  0  0  0  0  0  0  0  0  0
    4.1220   -4.1252   31.3222 O   0  0  0  0  0  0  0  0  0  0  0  0
    3.4886   -3.9719   29.0114 C   0  0  0  0  0  0  0  0  0  0  0  0
    2.2516   -4.4880   29.0176 C   0  0  0  0  0  0  0  0  0  0  0  0
    1.3936   -4.7642   30.1727 C   0  0  0  0  0  0  0  0  0  0  0  0
    1.0197   -3.7626   31.0682 C   0  0  0  0  0  0  0  0  0  0  0  0
    0.0464   -4.0148   32.0328 C   0  0  0  0  0  0  0  0  0  0  0  0
   -0.4674   -2.9074   32.8383 N   0  0  0  0  0  0  0  0  0  0  0  0
   -1.8663   -2.3561   32.5024 S   0  0  0  0  0  0  0  0  0  0  0  0
   -2.9209   -3.1043   31.8514 O   0  0  0  0  0  0  0  0  0  0  0  0
   -2.5127   -1.5243   33.9402 C   0  0  0  0  0  0  0  0  0  0  0  0
   -3.8772   -0.9158   33.6887 C   0  0  0  0  0  0  0  0  0  0  0  0
   -1.4464   -1.1538   31.3929 N   0  0  0  0  0  0  0  0  0  0  0  0
   -1.6012   -1.4044   29.9654 C   0  0  0  0  0  0  0  0  0  0  0  0
   -0.8166   -0.3845   29.1830 C   0  0  0  0  0  0  0  0  0  0  0  0
   -1.3496    0.9001   28.9385 C   0  0  0  0  0  0  0  0  0  0  0  0
   -0.5920    1.8934   28.3193 C   0  0  0  0  0  0  0  0  0  0  0  0
    0.7003    1.5755   27.9810 C   0  0  0  0  0  0  0  0  0  0  0  0
    1.2248    0.3247   28.1983 C   0  0  0  0  0  0  0  0  0  0  0  0
    0.4890   -0.6803   28.7745 C   0  0  0  0  0  0  0  0  0  0  0  0
    2.5243    0.2279   27.8126 O   0  0  0  0  0  0  0  0  0  0  0  0
    2.7753    1.5860   27.4026 C   0  0  0  0  0  0  0  0  0  0  0  0
    1.6052    2.4226   27.4275 O   0  0  0  0  0  0  0  0  0  0  0  0
   -0.5226   -5.2790   32.1648 C   0  0  0  0  0  0  0  0  0  0  0  0
   -0.1410   -6.2930   31.2901 C   0  0  0  0  0  0  0  0  0  0  0  0
   -0.8192   -7.6243   31.2437 C   0  0  0  0  0  0  0  0  0  0  0  0
   -1.2014   -8.1676   32.5144 N   0  0  0  0  0  0  0  0  0  0  0  0
   -0.9605   -8.0566   30.1352 O   0  0  0  0  0  0  0  0  0  0  0  0
    0.8111   -6.0242   30.2972 C   0  0  0  0  0  0  0  0  0  0  0  0
    8.0916   -3.2687   31.6206 H   0  0  0  0  0  0  0  0  0  0  0  0
    6.9075   -4.5160   31.1758 H   0  0  0  0  0  0  0  0  0  0  0  0
    7.7930   -3.6702   29.9129 H   0  0  0  0  0  0  0  0  0  0  0  0
    5.7532   -2.3462   31.8045 H   0  0  0  0  0  0  0  0  0  0  0  0
    6.6778   -1.5213   30.5493 H   0  0  0  0  0  0  0  0  0  0  0  0
    3.9711   -3.7625   28.0613 H   0  0  0  0  0  0  0  0  0  0  0  0
    1.7819   -4.6885   28.0579 H   0  0  0  0  0  0  0  0  0  0  0  0
    1.4403   -2.7644   30.9941 H   0  0  0  0  0  0  0  0  0  0  0  0
   -2.5678   -2.2571   34.7496 H   0  0  0  0  0  0  0  0  0  0  0  0
   -1.7911   -0.7527   34.2270 H   0  0  0  0  0  0  0  0  0  0  0  0
   -4.6171   -1.6886   33.4563 H   0  0  0  0  0  0  0  0  0  0  0  0
   -4.2217   -0.3733   34.5743 H   0  0  0  0  0  0  0  0  0  0  0  0
   -3.8495   -0.2180   32.8474 H   0  0  0  0  0  0  0  0  0  0  0  0
   -0.4593   -1.0081   31.5802 H   0  0  0  0  0  0  0  0  0  0  0  0
   -1.2634   -2.4107   29.6921 H   0  0  0  0  0  0  0  0  0  0  0  0
   -2.6514   -1.3418   29.6855 H   0  0  0  0  0  0  0  0  0  0  0  0
   -2.3615    1.1386   29.2489 H   0  0  0  0  0  0  0  0  0  0  0  0
   -1.0011    2.8816   28.1381 H   0  0  0  0  0  0  0  0  0  0  0  0
    0.9264   -1.6577   28.9237 H   0  0  0  0  0  0  0  0  0  0  0  0
    3.5337    2.0193   28.0657 H   0  0  0  0  0  0  0  0  0  0  0  0
    3.1744    1.5731   26.3819 H   0  0  0  0  0  0  0  0  0  0  0  0
   -1.3202   -5.4073   32.8882 H   0  0  0  0  0  0  0  0  0  0  0  0
   -1.0227   -7.4630   33.2495 H   0  0  0  0  0  0  0  0  0  0  0  0
   -0.8126   -7.5718   33.2666 H   0  0  0  0  0  0  0  0  0  0  0  0
    1.0673   -6.8061   29.5889 H   0  0  0  0  0  0  0  0  0  0  0  0
  1  2  1  0
  2  3  1  0
  3  4  1  0
  4  5  2  0
  4  6  1  0
  6  7  2  3
  7  8  1  0
  8  9  2  0
  9 10  1  0
 10 11  1  0
 11 12  2  0
 12 13  2  0
 12 14  1  0
 14 15  1  0
 12 16  1  0
 16 17  1  0
 17 18  1  0
 18 19  2  0
 19 20  1  0
 20 21  2  0
 21 22  1  0
 22 23  2  0
 22 24  1  0
 24 25  1  0
 25 26  1  0
 10 27  2  0
 27 28  1  0
 28 29  1  0
 29 30  1  0
 29 31  2  0
 28 32  2  0
 32  8  1  0
 23 18  1  0
 26 21  1  0
  1 33  1  0
  1 34  1  0
  1 35  1  0
  2 36  1  0
  2 37  1  0
  6 38  1  0
  7 39  1  0
  9 40  1  0
 14 41  1  0
 14 42  1  0
 15 43  1  0
 15 44  1  0
 15 45  1  0
 16 46  1  0
 17 47  1  0
 17 48  1  0
 19 49  1  0
 20 50  1  0
 23 51  1  0
 25 52  1  0
 25 53  1  0
 27 54  1  0
 30 55  1  0
 30 56  1  0
 32 57  1  0
M  END
>  <Energy>  (216) 
64.830170965376567

>  <compound_id>  (216) 
258

>  <target_id>  (216) 
1

>  <reference_id>  (216) 
194

>  <inspiration_ids>  (216) 
[200, 194]

>  <energy_score>  (216) 
84.5727257462446

>  <distance_score>  (216) 
2.7712300382331536

>  <path>  (216) 
/opt/xchem-fragalysis-2/maxwin/BulkDock/SCRATCH/505737/C258-P194/C258-P194.minimised.mol

>  <scratch_subdir>  (216) 
/opt/xchem-fragalysis-2/maxwin/BulkDock/SCRATCH/505737/C258-P194

>  <fragmenstein_runtime>  (216) 
12.3787100315094

>  <fragmenstein_outcome>  (216) 
too moved

>  <fragmenstein_mode>  (216) 
expansion

>  <fragmenstein_error>  (216) 


$$$$
C259-P200
     RDKit          3D

 38 39  0  0  0  0  0  0  0  0999 V2000
    5.3108   -3.5180   28.7232 C   0  0  0  0  0  0  0  0  0  0  0  0
    4.8959   -3.7090   27.2704 C   0  0  0  0  0  0  0  0  0  0  0  0
    4.8316   -5.1138   26.9434 O   0  0  0  0  0  0  0  0  0  0  0  0
    3.7893   -5.9024   27.2842 C   0  0  0  0  0  0  0  0  0  0  0  0
    3.8502   -7.1298   27.2928 O   0  0  0  0  0  0  0  0  0  0  0  0
    2.5693   -5.2291   27.7472 C   0  0  0  0  0  0  0  0  0  0  0  0
    2.1497   -5.5809   28.9695 C   0  0  0  0  0  0  0  0  0  0  0  0
    0.9453   -5.0713   29.7066 C   0  0  0  0  0  0  0  0  0  0  0  0
    1.3985   -3.9640   30.6542 C   0  0  0  0  0  0  0  0  0  0  0  0
    0.2645   -3.4243   31.5150 C   0  0  0  0  0  0  0  0  0  0  0  0
   -0.7508   -4.4798   31.9502 C   0  0  0  0  0  0  0  0  0  0  0  0
   -0.2285   -5.9226   31.8660 C   0  0  0  0  0  0  0  0  0  0  0  0
    0.2191   -6.2317   30.4258 C   0  0  0  0  0  0  0  0  0  0  0  0
    0.8565   -6.1225   32.8345 N   0  0  0  0  0  0  0  0  0  0  0  0
    0.2790   -6.9320   33.8893 C   0  0  0  0  0  0  0  0  0  0  0  0
   -0.6444   -7.7747   33.1750 N   0  0  0  0  0  0  0  0  0  0  0  0
   -1.2700   -6.8981   32.2253 N   0  0  0  0  0  0  0  0  0  0  0  0
    6.2568   -4.0332   28.9199 H   0  0  0  0  0  0  0  0  0  0  0  0
    4.5732   -3.9363   29.4127 H   0  0  0  0  0  0  0  0  0  0  0  0
    5.4343   -2.4554   28.9507 H   0  0  0  0  0  0  0  0  0  0  0  0
    3.9560   -3.1981   27.0406 H   0  0  0  0  0  0  0  0  0  0  0  0
    5.6590   -3.2732   26.6166 H   0  0  0  0  0  0  0  0  0  0  0  0
    2.0720   -4.5180   27.1036 H   0  0  0  0  0  0  0  0  0  0  0  0
    2.7898   -6.2382   29.5438 H   0  0  0  0  0  0  0  0  0  0  0  0
    0.2438   -4.6179   28.9945 H   0  0  0  0  0  0  0  0  0  0  0  0
    2.2048   -4.3280   31.3051 H   0  0  0  0  0  0  0  0  0  0  0  0
    1.8376   -3.1314   30.0884 H   0  0  0  0  0  0  0  0  0  0  0  0
   -0.2651   -2.6331   30.9693 H   0  0  0  0  0  0  0  0  0  0  0  0
    0.6950   -2.9382   32.3993 H   0  0  0  0  0  0  0  0  0  0  0  0
   -1.0994   -4.2410   32.9633 H   0  0  0  0  0  0  0  0  0  0  0  0
   -1.6255   -4.3651   31.3061 H   0  0  0  0  0  0  0  0  0  0  0  0
   -0.6658   -6.4774   29.8244 H   0  0  0  0  0  0  0  0  0  0  0  0
    0.8082   -7.1565   30.4116 H   0  0  0  0  0  0  0  0  0  0  0  0
    1.1537   -5.2394   33.2373 H   0  0  0  0  0  0  0  0  0  0  0  0
    1.0478   -7.5116   34.4069 H   0  0  0  0  0  0  0  0  0  0  0  0
   -0.2415   -6.3094   34.6278 H   0  0  0  0  0  0  0  0  0  0  0  0
   -1.2795   -8.2857   33.7974 H   0  0  0  0  0  0  0  0  0  0  0  0
   -2.0350   -6.3847   32.6657 H   0  0  0  0  0  0  0  0  0  0  0  0
  1  2  1  0
  2  3  1  0
  3  4  1  0
  4  5  2  0
  4  6  1  0
  6  7  2  3
  7  8  1  0
  8  9  1  0
  9 10  1  0
 10 11  1  0
 11 12  1  0
 12 13  1  0
 12 14  1  0
 14 15  1  0
 15 16  1  0
 16 17  1  0
 13  8  1  0
 17 12  1  0
  1 18  1  0
  1 19  1  0
  1 20  1  0
  2 21  1  0
  2 22  1  0
  6 23  1  0
  7 24  1  0
  8 25  1  0
  9 26  1  0
  9 27  1  0
 10 28  1  0
 10 29  1  0
 11 30  1  0
 11 31  1  0
 13 32  1  0
 13 33  1  0
 14 34  1  0
 15 35  1  0
 15 36  1  0
 16 37  1  0
 17 38  1  0
M  END
>  <Energy>  (217) 
14.761527301346291

>  <compound_id>  (217) 
259

>  <target_id>  (217) 
1

>  <reference_id>  (217) 
200

>  <inspiration_ids>  (217) 
[200, 195]

>  <energy_score>  (217) 
-4.842209931860339

>  <distance_score>  (217) 
1.2339798668117579

>  <path>  (217) 
/opt/xchem-fragalysis-2/maxwin/BulkDock/SCRATCH/505737/C259-P200/C259-P200.minimised.mol

>  <scratch_subdir>  (217) 
/opt/xchem-fragalysis-2/maxwin/BulkDock/SCRATCH/505737/C259-P200

>  <fragmenstein_runtime>  (217) 
2.2408344745635986

>  <fragmenstein_outcome>  (217) 
too moved

>  <fragmenstein_mode>  (217) 
expansion

>  <fragmenstein_error>  (217) 


$$$$
C259-P195
     RDKit          3D

 38 39  0  0  0  0  0  0  0  0999 V2000
    5.8344   -3.6839   29.1565 C   0  0  0  0  0  0  0  0  0  0  0  0
    5.4728   -3.8495   27.6896 C   0  0  0  0  0  0  0  0  0  0  0  0
    5.1697   -5.2250   27.3717 O   0  0  0  0  0  0  0  0  0  0  0  0
    4.0213   -5.8674   27.6794 C   0  0  0  0  0  0  0  0  0  0  0  0
    3.8521   -7.0570   27.4217 O   0  0  0  0  0  0  0  0  0  0  0  0
    2.9889   -5.1062   28.4052 C   0  0  0  0  0  0  0  0  0  0  0  0
    1.9950   -5.7831   29.0008 C   0  0  0  0  0  0  0  0  0  0  0  0
    0.9100   -5.2027   29.8773 C   0  0  0  0  0  0  0  0  0  0  0  0
    1.3866   -4.0233   30.7254 C   0  0  0  0  0  0  0  0  0  0  0  0
    0.2721   -3.4296   31.5805 C   0  0  0  0  0  0  0  0  0  0  0  0
   -0.7867   -4.4420   32.0100 C   0  0  0  0  0  0  0  0  0  0  0  0
   -0.2520   -5.8749   32.1029 C   0  0  0  0  0  0  0  0  0  0  0  0
    0.2707   -6.3249   30.7274 C   0  0  0  0  0  0  0  0  0  0  0  0
    0.8002   -5.9653   33.1247 N   0  0  0  0  0  0  0  0  0  0  0  0
    0.3462   -6.9613   34.0820 C   0  0  0  0  0  0  0  0  0  0  0  0
   -0.5812   -7.7678   33.3305 N   0  0  0  0  0  0  0  0  0  0  0  0
   -1.2882   -6.8222   32.5192 N   0  0  0  0  0  0  0  0  0  0  0  0
    6.6633   -4.3497   29.4193 H   0  0  0  0  0  0  0  0  0  0  0  0
    5.0052   -3.9395   29.8208 H   0  0  0  0  0  0  0  0  0  0  0  0
    6.1351   -2.6526   29.3628 H   0  0  0  0  0  0  0  0  0  0  0  0
    4.6556   -3.1906   27.3799 H   0  0  0  0  0  0  0  0  0  0  0  0
    6.3383   -3.5772   27.0758 H   0  0  0  0  0  0  0  0  0  0  0  0
    3.0524   -4.0334   28.4776 H   0  0  0  0  0  0  0  0  0  0  0  0
    1.9550   -6.8596   28.8631 H   0  0  0  0  0  0  0  0  0  0  0  0
    0.1239   -4.8148   29.2169 H   0  0  0  0  0  0  0  0  0  0  0  0
    2.2134   -4.3432   31.3732 H   0  0  0  0  0  0  0  0  0  0  0  0
    1.7903   -3.2175   30.1012 H   0  0  0  0  0  0  0  0  0  0  0  0
   -0.2235   -2.6203   31.0294 H   0  0  0  0  0  0  0  0  0  0  0  0
    0.7191   -2.9575   32.4640 H   0  0  0  0  0  0  0  0  0  0  0  0
   -1.2279   -4.1138   32.9597 H   0  0  0  0  0  0  0  0  0  0  0  0
   -1.5914   -4.3987   31.2712 H   0  0  0  0  0  0  0  0  0  0  0  0
   -0.5534   -6.7486   30.1357 H   0  0  0  0  0  0  0  0  0  0  0  0
    0.9552   -7.1663   30.8682 H   0  0  0  0  0  0  0  0  0  0  0  0
    0.8878   -5.0840   33.6222 H   0  0  0  0  0  0  0  0  0  0  0  0
    1.1866   -7.5464   34.4641 H   0  0  0  0  0  0  0  0  0  0  0  0
   -0.1551   -6.4812   34.9318 H   0  0  0  0  0  0  0  0  0  0  0  0
   -1.1576   -8.3672   33.9379 H   0  0  0  0  0  0  0  0  0  0  0  0
   -1.9610   -6.3073   33.0892 H   0  0  0  0  0  0  0  0  0  0  0  0
  1  2  1  0
  2  3  1  0
  3  4  1  0
  4  5  2  0
  4  6  1  0
  6  7  2  3
  7  8  1  0
  8  9  1  0
  9 10  1  0
 10 11  1  0
 11 12  1  0
 12 13  1  0
 12 14  1  0
 14 15  1  0
 15 16  1  0
 16 17  1  0
 13  8  1  0
 17 12  1  0
  1 18  1  0
  1 19  1  0
  1 20  1  0
  2 21  1  0
  2 22  1  0
  6 23  1  0
  7 24  1  0
  8 25  1  0
  9 26  1  0
  9 27  1  0
 10 28  1  0
 10 29  1  0
 11 30  1  0
 11 31  1  0
 13 32  1  0
 13 33  1  0
 14 34  1  0
 15 35  1  0
 15 36  1  0
 16 37  1  0
 17 38  1  0
M  END
>  <Energy>  (218) 
14.135292607467756

>  <compound_id>  (218) 
259

>  <target_id>  (218) 
1

>  <reference_id>  (218) 
195

>  <inspiration_ids>  (218) 
[200, 195]

>  <energy_score>  (218) 
-5.4684446257381865

>  <distance_score>  (218) 
1.2923400981932

>  <path>  (218) 
/opt/xchem-fragalysis-2/maxwin/BulkDock/SCRATCH/505737/C259-P195/C259-P195.minimised.mol

>  <scratch_subdir>  (218) 
/opt/xchem-fragalysis-2/maxwin/BulkDock/SCRATCH/505737/C259-P195

>  <fragmenstein_runtime>  (218) 
2.138094663619995

>  <fragmenstein_outcome>  (218) 
too moved

>  <fragmenstein_mode>  (218) 
expansion

>  <fragmenstein_error>  (218) 


$$$$
C301-P200
     RDKit          3D

 42 43  0  0  0  0  0  0  0  0999 V2000
    6.7693   -3.9919   28.0838 C   0  0  0  0  0  0  0  0  0  0  0  0
    5.6441   -3.6064   27.1416 C   0  0  0  0  0  0  0  0  0  0  0  0
    4.3803   -3.8151   27.7841 O   0  0  0  0  0  0  0  0  0  0  0  0
    3.9409   -2.8073   28.5943 C   0  0  0  0  0  0  0  0  0  0  0  0
    4.5633   -1.7984   28.7744 O   0  0  0  0  0  0  0  0  0  0  0  0
    2.7172   -3.2361   29.1368 N   0  0  0  0  0  0  0  0  0  0  0  0
    1.5741   -2.7959   28.2594 C   0  0  0  0  0  0  0  0  0  0  0  0
    0.2221   -3.2626   28.7722 C   0  0  0  0  0  0  0  0  0  0  0  0
    0.5063   -3.3521   30.2456 C   0  0  0  0  0  0  0  0  0  0  0  0
   -0.5387   -2.6076   31.0911 C   0  0  0  0  0  0  0  0  0  0  0  0
   -0.7608   -3.2214   32.4749 C   0  0  0  0  0  0  0  0  0  0  0  0
    0.5103   -3.8113   33.0698 C   0  0  0  0  0  0  0  0  0  0  0  0
    1.1101   -4.9184   32.1826 C   0  0  0  0  0  0  0  0  0  0  0  0
    0.8179   -6.3062   32.7908 C   0  0  0  0  0  0  0  0  0  0  0  0
    0.0046   -7.0335   32.2957 O   0  0  0  0  0  0  0  0  0  0  0  0
    1.6417   -6.4722   33.9799 N   0  0  0  0  0  0  0  0  0  0  0  0
    1.7934   -7.5513   34.8323 N   0  0  0  0  0  0  0  0  0  0  0  0
    0.6362   -4.8181   30.7185 C   0  0  0  0  0  0  0  0  0  0  0  0
    1.8531   -2.6324   30.1885 C   0  0  0  0  0  0  0  0  0  0  0  0
    6.7762   -3.3575   28.9755 H   0  0  0  0  0  0  0  0  0  0  0  0
    7.7386   -3.9006   27.5855 H   0  0  0  0  0  0  0  0  0  0  0  0
    6.6456   -5.0240   28.4283 H   0  0  0  0  0  0  0  0  0  0  0  0
    5.6659   -4.2522   26.2575 H   0  0  0  0  0  0  0  0  0  0  0  0
    5.7470   -2.5739   26.7880 H   0  0  0  0  0  0  0  0  0  0  0  0
    1.7547   -3.2547   27.2787 H   0  0  0  0  0  0  0  0  0  0  0  0
    1.6127   -1.7114   28.0543 H   0  0  0  0  0  0  0  0  0  0  0  0
   -0.5536   -2.5395   28.4991 H   0  0  0  0  0  0  0  0  0  0  0  0
   -0.0585   -4.2263   28.3510 H   0  0  0  0  0  0  0  0  0  0  0  0
   -0.2497   -1.5560   31.2098 H   0  0  0  0  0  0  0  0  0  0  0  0
   -1.5106   -2.5956   30.5808 H   0  0  0  0  0  0  0  0  0  0  0  0
   -1.5147   -4.0129   32.4002 H   0  0  0  0  0  0  0  0  0  0  0  0
   -1.1755   -2.4622   33.1480 H   0  0  0  0  0  0  0  0  0  0  0  0
    1.2474   -3.0077   33.1914 H   0  0  0  0  0  0  0  0  0  0  0  0
    0.2908   -4.1760   34.0800 H   0  0  0  0  0  0  0  0  0  0  0  0
    2.2032   -4.8058   32.1787 H   0  0  0  0  0  0  0  0  0  0  0  0
    2.2842   -5.6822   34.0540 H   0  0  0  0  0  0  0  0  0  0  0  0
    0.8714   -8.0036   34.9083 H   0  0  0  0  0  0  0  0  0  0  0  0
    1.9689   -7.2091   35.7835 H   0  0  0  0  0  0  0  0  0  0  0  0
   -0.3367   -5.3107   30.5925 H   0  0  0  0  0  0  0  0  0  0  0  0
    1.3301   -5.3851   30.0839 H   0  0  0  0  0  0  0  0  0  0  0  0
    2.4132   -2.7767   31.1203 H   0  0  0  0  0  0  0  0  0  0  0  0
    1.8022   -1.5310   30.1096 H   0  0  0  0  0  0  0  0  0  0  0  0
  1  2  1  0
  2  3  1  0
  3  4  1  0
  4  5  2  0
  4  6  1  0
  6  7  1  0
  7  8  1  0
  8  9  1  0
  9 10  1  0
 10 11  1  0
 11 12  1  0
 12 13  1  0
 13 14  1  0
 14 15  2  0
 14 16  1  0
 16 17  1  0
 13 18  1  0
  9 19  1  0
 19  6  1  0
 18  9  1  0
  1 20  1  0
  1 21  1  0
  1 22  1  0
  2 23  1  0
  2 24  1  0
  7 25  1  0
  7 26  1  0
  8 27  1  0
  8 28  1  0
 10 29  1  0
 10 30  1  0
 11 31  1  0
 11 32  1  0
 12 33  1  0
 12 34  1  0
 13 35  1  0
 16 36  1  0
 17 37  1  0
 17 38  1  0
 18 39  1  0
 18 40  1  0
 19 41  1  0
 19 42  1  0
M  END
>  <Energy>  (219) 
95.510090045349756

>  <compound_id>  (219) 
301

>  <target_id>  (219) 
1

>  <reference_id>  (219) 
200

>  <inspiration_ids>  (219) 
[200, 196]

>  <energy_score>  (219) 
33.71122316355459

>  <distance_score>  (219) 
2.9346344680485883

>  <path>  (219) 
/opt/xchem-fragalysis-2/maxwin/BulkDock/SCRATCH/505737/C301-P200/C301-P200.minimised.mol

>  <scratch_subdir>  (219) 
/opt/xchem-fragalysis-2/maxwin/BulkDock/SCRATCH/505737/C301-P200

>  <fragmenstein_runtime>  (219) 
6.848355054855347

>  <fragmenstein_outcome>  (219) 
too moved

>  <fragmenstein_mode>  (219) 
expansion

>  <fragmenstein_error>  (219) 


$$$$
C301-P196
     RDKit          3D

 42 43  0  0  0  0  0  0  0  0999 V2000
    6.0283   -3.0660   29.3882 C   0  0  0  0  0  0  0  0  0  0  0  0
    5.8159   -1.6749   29.9748 C   0  0  0  0  0  0  0  0  0  0  0  0
    5.0484   -1.7557   31.1842 O   0  0  0  0  0  0  0  0  0  0  0  0
    3.7247   -2.0346   31.0055 C   0  0  0  0  0  0  0  0  0  0  0  0
    3.2044   -2.0157   29.9548 O   0  0  0  0  0  0  0  0  0  0  0  0
    3.1895   -2.4355   32.3447 N   0  0  0  0  0  0  0  0  0  0  0  0
    3.4117   -3.8902   32.6036 C   0  0  0  0  0  0  0  0  0  0  0  0
    2.5171   -4.7558   31.7530 C   0  0  0  0  0  0  0  0  0  0  0  0
    1.2212   -4.0543   32.0066 C   0  0  0  0  0  0  0  0  0  0  0  0
    0.4634   -3.6537   30.7440 C   0  0  0  0  0  0  0  0  0  0  0  0
    0.1194   -4.8595   29.8971 C   0  0  0  0  0  0  0  0  0  0  0  0
   -0.0977   -6.1340   30.7065 C   0  0  0  0  0  0  0  0  0  0  0  0
   -0.6106   -5.8744   32.1266 C   0  0  0  0  0  0  0  0  0  0  0  0
   -0.8120   -7.2158   32.8498 C   0  0  0  0  0  0  0  0  0  0  0  0
   -0.5323   -8.2328   32.3459 O   0  0  0  0  0  0  0  0  0  0  0  0
   -1.4453   -6.9198   34.2441 N   0  0  0  0  0  0  0  0  0  0  0  0
   -1.7583   -7.7730   35.2870 N   0  0  0  0  0  0  0  0  0  0  0  0
    0.2995   -4.9133   32.8984 C   0  0  0  0  0  0  0  0  0  0  0  0
    1.7937   -2.8388   32.7690 C   0  0  0  0  0  0  0  0  0  0  0  0
    6.4697   -3.7328   30.1363 H   0  0  0  0  0  0  0  0  0  0  0  0
    6.6945   -3.0177   28.5219 H   0  0  0  0  0  0  0  0  0  0  0  0
    5.0865   -3.5230   29.0706 H   0  0  0  0  0  0  0  0  0  0  0  0
    6.7846   -1.2392   30.2402 H   0  0  0  0  0  0  0  0  0  0  0  0
    5.3423   -0.9976   29.2548 H   0  0  0  0  0  0  0  0  0  0  0  0
    4.4506   -4.1051   32.3147 H   0  0  0  0  0  0  0  0  0  0  0  0
    3.3900   -4.1308   33.6812 H   0  0  0  0  0  0  0  0  0  0  0  0
    2.8260   -4.7293   30.7028 H   0  0  0  0  0  0  0  0  0  0  0  0
    2.5287   -5.7892   32.1022 H   0  0  0  0  0  0  0  0  0  0  0  0
   -0.4650   -3.1415   31.0328 H   0  0  0  0  0  0  0  0  0  0  0  0
    1.0117   -2.9333   30.1335 H   0  0  0  0  0  0  0  0  0  0  0  0
    0.9304   -5.0368   29.1813 H   0  0  0  0  0  0  0  0  0  0  0  0
   -0.7653   -4.6155   29.3024 H   0  0  0  0  0  0  0  0  0  0  0  0
   -0.7714   -6.8071   30.1635 H   0  0  0  0  0  0  0  0  0  0  0  0
    0.8483   -6.6838   30.7570 H   0  0  0  0  0  0  0  0  0  0  0  0
   -1.5889   -5.4048   32.0361 H   0  0  0  0  0  0  0  0  0  0  0  0
   -1.4775   -5.9097   34.3977 H   0  0  0  0  0  0  0  0  0  0  0  0
   -1.7583   -8.7517   34.9242 H   0  0  0  0  0  0  0  0  0  0  0  0
   -0.9658   -7.8252   35.9375 H   0  0  0  0  0  0  0  0  0  0  0  0
   -0.3469   -4.2380   33.4771 H   0  0  0  0  0  0  0  0  0  0  0  0
    0.8924   -5.4520   33.6498 H   0  0  0  0  0  0  0  0  0  0  0  0
    1.1749   -1.9597   32.5404 H   0  0  0  0  0  0  0  0  0  0  0  0
    1.7409   -2.9270   33.8680 H   0  0  0  0  0  0  0  0  0  0  0  0
  1  2  1  0
  2  3  1  0
  3  4  1  0
  4  5  2  0
  4  6  1  0
  6  7  1  0
  7  8  1  0
  8  9  1  0
  9 10  1  0
 10 11  1  0
 11 12  1  0
 12 13  1  0
 13 14  1  0
 14 15  2  0
 14 16  1  0
 16 17  1  0
 13 18  1  0
  9 19  1  0
 19  6  1  0
 18  9  1  0
  1 20  1  0
  1 21  1  0
  1 22  1  0
  2 23  1  0
  2 24  1  0
  7 25  1  0
  7 26  1  0
  8 27  1  0
  8 28  1  0
 10 29  1  0
 10 30  1  0
 11 31  1  0
 11 32  1  0
 12 33  1  0
 12 34  1  0
 13 35  1  0
 16 36  1  0
 17 37  1  0
 17 38  1  0
 18 39  1  0
 18 40  1  0
 19 41  1  0
 19 42  1  0
M  END
>  <Energy>  (220) 
118.27519449217024

>  <compound_id>  (220) 
301

>  <target_id>  (220) 
1

>  <reference_id>  (220) 
196

>  <inspiration_ids>  (220) 
[200, 196]

>  <energy_score>  (220) 
45.65432463385696

>  <distance_score>  (220) 
3.2495939154483895

>  <path>  (220) 
/opt/xchem-fragalysis-2/maxwin/BulkDock/SCRATCH/505737/C301-P196/C301-P196.minimised.mol

>  <scratch_subdir>  (220) 
/opt/xchem-fragalysis-2/maxwin/BulkDock/SCRATCH/505737/C301-P196

>  <fragmenstein_runtime>  (220) 
4.457353830337524

>  <fragmenstein_outcome>  (220) 
too moved

>  <fragmenstein_mode>  (220) 
expansion

>  <fragmenstein_error>  (220) 


$$$$
C302-P200
     RDKit          3D

 56 57  0  0  0  0  0  0  0  0999 V2000
    5.9174   -3.2064   27.7398 C   0  0  0  0  0  0  0  0  0  0  0  0
    4.9447   -3.9712   26.8620 C   0  0  0  0  0  0  0  0  0  0  0  0
    5.0842   -5.3903   27.0784 O   0  0  0  0  0  0  0  0  0  0  0  0
    4.1205   -6.0476   27.7550 C   0  0  0  0  0  0  0  0  0  0  0  0
    3.6774   -7.1460   27.4298 O   0  0  0  0  0  0  0  0  0  0  0  0
    3.6811   -5.4146   29.0072 C   0  0  0  0  0  0  0  0  0  0  0  0
    2.3726   -5.4707   29.2876 C   0  0  0  0  0  0  0  0  0  0  0  0
    1.7202   -5.1217   30.5616 C   0  0  0  0  0  0  0  0  0  0  0  0
    0.7057   -6.0167   30.9490 C   0  0  0  0  0  0  0  0  0  0  0  0
   -0.0329   -5.8290   32.1183 C   0  0  0  0  0  0  0  0  0  0  0  0
   -1.0631   -6.8725   32.4446 C   0  0  0  0  0  0  0  0  0  0  0  0
   -1.2561   -7.1202   33.8530 N   0  0  0  0  0  0  0  0  0  0  0  0
   -1.5907   -7.3633   31.4851 O   0  0  0  0  0  0  0  0  0  0  0  0
    0.2092   -4.6907   32.8850 C   0  0  0  0  0  0  0  0  0  0  0  0
    1.2399   -3.8076   32.5239 C   0  0  0  0  0  0  0  0  0  0  0  0
    2.0001   -3.9837   31.3553 C   0  0  0  0  0  0  0  0  0  0  0  0
    3.0742   -3.1462   31.0369 N   0  0  0  0  0  0  0  0  0  0  0  0
    3.2107   -1.7632   31.5103 C   0  0  0  0  0  0  0  0  0  0  0  0
    2.1574   -0.8346   30.9342 C   0  0  0  0  0  0  0  0  0  0  0  0
    2.3131   -0.6719   29.1567 S   0  0  0  0  0  0  0  0  0  0  0  0
    2.9342   -1.8739   28.6383 O   0  0  0  0  0  0  0  0  0  0  0  0
    2.8775    0.6325   28.8874 O   0  0  0  0  0  0  0  0  0  0  0  0
    0.7048   -0.6776   28.6749 N   0  0  0  0  0  0  0  0  0  0  0  0
   -0.0923   -1.9156   28.7483 C   0  0  0  0  0  0  0  0  0  0  0  0
   -1.1408   -1.8425   29.8543 C   0  0  0  0  0  0  0  0  0  0  0  0
   -1.5612   -0.4073   30.1564 C   0  0  0  0  0  0  0  0  0  0  0  0
   -2.8592   -0.4116   30.7288 O   0  0  0  0  0  0  0  0  0  0  0  0
   -1.4902    0.4354   28.8888 C   0  0  0  0  0  0  0  0  0  0  0  0
   -0.0257    0.5905   28.4986 C   0  0  0  0  0  0  0  0  0  0  0  0
    5.7017   -3.3475   28.8018 H   0  0  0  0  0  0  0  0  0  0  0  0
    5.8750   -2.1359   27.5188 H   0  0  0  0  0  0  0  0  0  0  0  0
    6.9407   -3.5590   27.5740 H   0  0  0  0  0  0  0  0  0  0  0  0
    3.9108   -3.6456   27.0104 H   0  0  0  0  0  0  0  0  0  0  0  0
    5.1886   -3.7894   25.8101 H   0  0  0  0  0  0  0  0  0  0  0  0
    4.4400   -5.0480   29.6828 H   0  0  0  0  0  0  0  0  0  0  0  0
    1.7042   -5.8857   28.5402 H   0  0  0  0  0  0  0  0  0  0  0  0
    0.4954   -6.8942   30.3360 H   0  0  0  0  0  0  0  0  0  0  0  0
   -0.7112   -6.4286   34.3946 H   0  0  0  0  0  0  0  0  0  0  0  0
   -0.5425   -6.5953   34.3888 H   0  0  0  0  0  0  0  0  0  0  0  0
   -0.3957   -4.4419   33.7538 H   0  0  0  0  0  0  0  0  0  0  0  0
    1.4257   -2.9605   33.1793 H   0  0  0  0  0  0  0  0  0  0  0  0
    3.2428   -3.1617   30.0199 H   0  0  0  0  0  0  0  0  0  0  0  0
    4.2077   -1.4110   31.2198 H   0  0  0  0  0  0  0  0  0  0  0  0
    3.1882   -1.7339   32.6050 H   0  0  0  0  0  0  0  0  0  0  0  0
    1.1628   -1.2058   31.1710 H   0  0  0  0  0  0  0  0  0  0  0  0
    2.2463    0.1704   31.3587 H   0  0  0  0  0  0  0  0  0  0  0  0
    0.5350   -2.8008   28.8790 H   0  0  0  0  0  0  0  0  0  0  0  0
   -0.5942   -2.0493   27.7909 H   0  0  0  0  0  0  0  0  0  0  0  0
   -2.0068   -2.4535   29.5705 H   0  0  0  0  0  0  0  0  0  0  0  0
   -0.7659   -2.3025   30.7748 H   0  0  0  0  0  0  0  0  0  0  0  0
   -0.8943    0.0195   30.9153 H   0  0  0  0  0  0  0  0  0  0  0  0
   -3.1462    0.5148   30.7840 H   0  0  0  0  0  0  0  0  0  0  0  0
   -2.0556   -0.0506   28.0834 H   0  0  0  0  0  0  0  0  0  0  0  0
   -1.9550    1.4163   29.0177 H   0  0  0  0  0  0  0  0  0  0  0  0
    0.4173    1.3667   29.1330 H   0  0  0  0  0  0  0  0  0  0  0  0
    0.0580    0.9205   27.4588 H   0  0  0  0  0  0  0  0  0  0  0  0
  1  2  1  0
  2  3  1  0
  3  4  1  0
  4  5  2  0
  4  6  1  0
  6  7  2  3
  7  8  1  0
  8  9  2  0
  9 10  1  0
 10 11  1  0
 11 12  1  0
 11 13  2  0
 10 14  2  0
 14 15  1  0
 15 16  2  0
 16 17  1  0
 17 18  1  0
 18 19  1  0
 19 20  1  0
 20 21  2  0
 20 22  2  0
 20 23  1  0
 23 24  1  0
 24 25  1  0
 25 26  1  0
 26 27  1  0
 26 28  1  0
 28 29  1  0
 16  8  1  0
 29 23  1  0
  1 30  1  0
  1 31  1  0
  1 32  1  0
  2 33  1  0
  2 34  1  0
  6 35  1  0
  7 36  1  0
  9 37  1  0
 12 38  1  0
 12 39  1  0
 14 40  1  0
 15 41  1  0
 17 42  1  0
 18 43  1  0
 18 44  1  0
 19 45  1  0
 19 46  1  0
 24 47  1  0
 24 48  1  0
 25 49  1  0
 25 50  1  0
 26 51  1  0
 27 52  1  0
 28 53  1  0
 28 54  1  0
 29 55  1  0
 29 56  1  0
M  END
>  <Energy>  (221) 
149.51350175103596

>  <compound_id>  (221) 
302

>  <target_id>  (221) 
1

>  <reference_id>  (221) 
200

>  <inspiration_ids>  (221) 
[200, 198]

>  <energy_score>  (221) 
107.40501568347639

>  <distance_score>  (221) 
1.7675298966367632

>  <path>  (221) 
/opt/xchem-fragalysis-2/maxwin/BulkDock/SCRATCH/505737/C302-P200/C302-P200.minimised.mol

>  <scratch_subdir>  (221) 
/opt/xchem-fragalysis-2/maxwin/BulkDock/SCRATCH/505737/C302-P200

>  <fragmenstein_runtime>  (221) 
8.503387212753296

>  <fragmenstein_outcome>  (221) 
too moved

>  <fragmenstein_mode>  (221) 
expansion

>  <fragmenstein_error>  (221) 


$$$$
C302-P198
     RDKit          3D

 56 57  0  0  0  0  0  0  0  0999 V2000
    5.6517   -2.8886   27.9697 C   0  0  0  0  0  0  0  0  0  0  0  0
    4.4918   -2.6705   27.0152 C   0  0  0  0  0  0  0  0  0  0  0  0
    4.1425   -3.9119   26.3644 O   0  0  0  0  0  0  0  0  0  0  0  0
    3.4389   -4.8981   26.9573 C   0  0  0  0  0  0  0  0  0  0  0  0
    3.4192   -6.0493   26.5349 O   0  0  0  0  0  0  0  0  0  0  0  0
    2.6523   -4.5428   28.1455 C   0  0  0  0  0  0  0  0  0  0  0  0
    2.7564   -5.3777   29.1867 C   0  0  0  0  0  0  0  0  0  0  0  0
    1.9715   -5.2778   30.4207 C   0  0  0  0  0  0  0  0  0  0  0  0
    0.8514   -6.1174   30.5318 C   0  0  0  0  0  0  0  0  0  0  0  0
    0.0688   -6.1657   31.6936 C   0  0  0  0  0  0  0  0  0  0  0  0
   -1.0296   -7.2022   31.7358 C   0  0  0  0  0  0  0  0  0  0  0  0
   -1.3629   -7.6910   33.0479 N   0  0  0  0  0  0  0  0  0  0  0  0
   -1.4847   -7.4774   30.6613 O   0  0  0  0  0  0  0  0  0  0  0  0
    0.3543   -5.2658   32.7211 C   0  0  0  0  0  0  0  0  0  0  0  0
    1.4943   -4.4547   32.6381 C   0  0  0  0  0  0  0  0  0  0  0  0
    2.3420   -4.4820   31.5180 C   0  0  0  0  0  0  0  0  0  0  0  0
    3.5136   -3.6909   31.5503 N   0  0  0  0  0  0  0  0  0  0  0  0
    3.4134   -2.3956   30.8481 C   0  0  0  0  0  0  0  0  0  0  0  0
    2.6405   -1.3659   31.6322 C   0  0  0  0  0  0  0  0  0  0  0  0
    2.0437   -0.0734   30.5615 S   0  0  0  0  0  0  0  0  0  0  0  0
    3.1442    0.3842   29.7402 O   0  0  0  0  0  0  0  0  0  0  0  0
    1.3139    0.8563   31.3967 O   0  0  0  0  0  0  0  0  0  0  0  0
    0.9259   -0.8179   29.5111 N   0  0  0  0  0  0  0  0  0  0  0  0
    0.0729   -1.9367   29.9664 C   0  0  0  0  0  0  0  0  0  0  0  0
   -0.9678   -1.4872   30.9636 C   0  0  0  0  0  0  0  0  0  0  0  0
   -1.5245   -0.1237   30.5938 C   0  0  0  0  0  0  0  0  0  0  0  0
   -2.8905   -0.1110   30.9719 O   0  0  0  0  0  0  0  0  0  0  0  0
   -1.3480    0.1886   29.1087 C   0  0  0  0  0  0  0  0  0  0  0  0
    0.1270    0.1601   28.6911 C   0  0  0  0  0  0  0  0  0  0  0  0
    5.3952   -3.6033   28.7566 H   0  0  0  0  0  0  0  0  0  0  0  0
    5.9510   -1.9457   28.4358 H   0  0  0  0  0  0  0  0  0  0  0  0
    6.5119   -3.3045   27.4345 H   0  0  0  0  0  0  0  0  0  0  0  0
    3.6272   -2.2229   27.5128 H   0  0  0  0  0  0  0  0  0  0  0  0
    4.7970   -1.9777   26.2237 H   0  0  0  0  0  0  0  0  0  0  0  0
    1.9924   -3.6882   28.1076 H   0  0  0  0  0  0  0  0  0  0  0  0
    3.4378   -6.2202   29.1242 H   0  0  0  0  0  0  0  0  0  0  0  0
    0.6092   -6.7920   29.7149 H   0  0  0  0  0  0  0  0  0  0  0  0
   -0.6821   -7.3160   33.7302 H   0  0  0  0  0  0  0  0  0  0  0  0
   -0.8436   -7.1439   33.7528 H   0  0  0  0  0  0  0  0  0  0  0  0
   -0.2805   -5.1574   33.5968 H   0  0  0  0  0  0  0  0  0  0  0  0
    1.7418   -3.8053   33.4777 H   0  0  0  0  0  0  0  0  0  0  0  0
    4.2709   -4.2230   31.1160 H   0  0  0  0  0  0  0  0  0  0  0  0
    3.0062   -2.5339   29.8472 H   0  0  0  0  0  0  0  0  0  0  0  0
    4.4342   -2.0227   30.6996 H   0  0  0  0  0  0  0  0  0  0  0  0
    1.7818   -1.7579   32.1777 H   0  0  0  0  0  0  0  0  0  0  0  0
    3.2915   -0.8875   32.3726 H   0  0  0  0  0  0  0  0  0  0  0  0
    0.6726   -2.7416   30.3759 H   0  0  0  0  0  0  0  0  0  0  0  0
   -0.4128   -2.3790   29.0859 H   0  0  0  0  0  0  0  0  0  0  0  0
   -1.7597   -2.2445   31.0266 H   0  0  0  0  0  0  0  0  0  0  0  0
   -0.5396   -1.4310   31.9715 H   0  0  0  0  0  0  0  0  0  0  0  0
   -1.0413    0.6515   31.1924 H   0  0  0  0  0  0  0  0  0  0  0  0
   -3.2026    0.7847   30.7682 H   0  0  0  0  0  0  0  0  0  0  0  0
   -1.9126   -0.5439   28.5163 H   0  0  0  0  0  0  0  0  0  0  0  0
   -1.7927    1.1591   28.8585 H   0  0  0  0  0  0  0  0  0  0  0  0
    0.5504    1.1675   28.7758 H   0  0  0  0  0  0  0  0  0  0  0  0
    0.2151   -0.1209   27.6368 H   0  0  0  0  0  0  0  0  0  0  0  0
  1  2  1  0
  2  3  1  0
  3  4  1  0
  4  5  2  0
  4  6  1  0
  6  7  2  3
  7  8  1  0
  8  9  2  0
  9 10  1  0
 10 11  1  0
 11 12  1  0
 11 13  2  0
 10 14  2  0
 14 15  1  0
 15 16  2  0
 16 17  1  0
 17 18  1  0
 18 19  1  0
 19 20  1  0
 20 21  2  0
 20 22  2  0
 20 23  1  0
 23 24  1  0
 24 25  1  0
 25 26  1  0
 26 27  1  0
 26 28  1  0
 28 29  1  0
 16  8  1  0
 29 23  1  0
  1 30  1  0
  1 31  1  0
  1 32  1  0
  2 33  1  0
  2 34  1  0
  6 35  1  0
  7 36  1  0
  9 37  1  0
 12 38  1  0
 12 39  1  0
 14 40  1  0
 15 41  1  0
 17 42  1  0
 18 43  1  0
 18 44  1  0
 19 45  1  0
 19 46  1  0
 24 47  1  0
 24 48  1  0
 25 49  1  0
 25 50  1  0
 26 51  1  0
 27 52  1  0
 28 53  1  0
 28 54  1  0
 29 55  1  0
 29 56  1  0
M  END
>  <Energy>  (222) 
154.47080380118496

>  <compound_id>  (222) 
302

>  <target_id>  (222) 
1

>  <reference_id>  (222) 
198

>  <inspiration_ids>  (222) 
[200, 198]

>  <energy_score>  (222) 
112.36231773362283

>  <distance_score>  (222) 
1.8601517114850155

>  <path>  (222) 
/opt/xchem-fragalysis-2/maxwin/BulkDock/SCRATCH/505737/C302-P198/C302-P198.minimised.mol

>  <scratch_subdir>  (222) 
/opt/xchem-fragalysis-2/maxwin/BulkDock/SCRATCH/505737/C302-P198

>  <fragmenstein_runtime>  (222) 
7.944336891174316

>  <fragmenstein_outcome>  (222) 
too moved

>  <fragmenstein_mode>  (222) 
expansion

>  <fragmenstein_error>  (222) 


$$$$
C263-P200
     RDKit          2D

  0  0  0  0  0  0  0  0  0  0999 V2000
M  END
>  <compound_id>  (223) 
263

>  <target_id>  (223) 
1

>  <reference_id>  (223) 
200

>  <inspiration_ids>  (223) 
[200, 199]

>  <energy_score>  (223) 
nan

>  <distance_score>  (223) 
nan

>  <path>  (223) 
/opt/xchem-fragalysis-2/maxwin/BulkDock/SCRATCH/505737/C263-P200/C263-P200.minimised.mol

>  <scratch_subdir>  (223) 
/opt/xchem-fragalysis-2/maxwin/BulkDock/SCRATCH/505737/C263-P200

>  <fragmenstein_runtime>  (223) 
1.4382896423339844

>  <fragmenstein_outcome>  (223) 
too distant

>  <fragmenstein_mode>  (223) 
expansion

>  <fragmenstein_error>  (223) 
DistanceError: hit1

$$$$
C303-P200
     RDKit          3D

 63 65  0  0  0  0  0  0  0  0999 V2000
    5.6172   -3.4108   26.7213 C   0  0  0  0  0  0  0  0  0  0  0  0
    4.3884   -3.7485   27.5387 C   0  0  0  0  0  0  0  0  0  0  0  0
    4.1392   -5.1627   27.4106 O   0  0  0  0  0  0  0  0  0  0  0  0
    3.1639   -5.8172   28.0794 C   0  0  0  0  0  0  0  0  0  0  0  0
    2.9926   -7.0275   27.9356 O   0  0  0  0  0  0  0  0  0  0  0  0
    2.3641   -5.0417   29.0476 C   0  0  0  0  0  0  0  0  0  0  0  0
    1.3900   -5.6673   29.7238 C   0  0  0  0  0  0  0  0  0  0  0  0
    0.7030   -5.0383   30.8523 C   0  0  0  0  0  0  0  0  0  0  0  0
    1.1312   -5.4729   32.1158 C   0  0  0  0  0  0  0  0  0  0  0  0
    0.5788   -4.9395   33.2759 C   0  0  0  0  0  0  0  0  0  0  0  0
    1.1361   -5.3838   34.5854 C   0  0  0  0  0  0  0  0  0  0  0  0
    1.3989   -4.3046   35.5074 N   0  0  0  0  0  0  0  0  0  0  0  0
    1.3045   -6.5657   34.6972 O   0  0  0  0  0  0  0  0  0  0  0  0
   -0.4634   -4.0261   33.1771 C   0  0  0  0  0  0  0  0  0  0  0  0
   -0.8821   -3.5851   31.9178 C   0  0  0  0  0  0  0  0  0  0  0  0
   -0.2902   -4.0436   30.7302 C   0  0  0  0  0  0  0  0  0  0  0  0
   -0.7280   -3.6093   29.4810 N   0  0  0  0  0  0  0  0  0  0  0  0
   -1.2935   -2.2811   29.2546 C   0  0  0  0  0  0  0  0  0  0  0  0
   -0.2349   -1.2358   28.9146 C   0  0  0  0  0  0  0  0  0  0  0  0
    0.7178   -0.9044   30.0588 C   0  0  0  0  0  0  0  0  0  0  0  0
    1.6839    0.2257   29.6998 C   0  0  0  0  0  0  0  0  0  0  0  0
    1.8269    1.0482   30.9792 C   0  0  0  0  0  0  0  0  0  0  0  0
    1.1179    0.2353   32.0592 C   0  0  0  0  0  0  0  0  0  0  0  0
    2.0028   -0.7677   32.7616 C   0  0  0  0  0  0  0  0  0  0  0  0
    1.6535   -1.3834   33.9073 N   0  0  0  0  0  0  0  0  0  0  0  0
    2.7775   -2.1551   34.2073 O   0  0  0  0  0  0  0  0  0  0  0  0
    3.6767   -1.9553   33.2018 C   0  0  0  0  0  0  0  0  0  0  0  0
    4.9670   -2.6962   33.2720 C   0  0  0  0  0  0  0  0  0  0  0  0
    4.7551   -4.1764   32.9643 C   0  0  0  0  0  0  0  0  0  0  0  0
    5.6498   -2.5100   34.6253 C   0  0  0  0  0  0  0  0  0  0  0  0
    3.2467   -1.1226   32.2840 N   0  0  0  0  0  0  0  0  0  0  0  0
    0.0424   -0.4318   31.2849 N   0  0  0  0  0  0  0  0  0  0  0  0
    5.8481   -2.3436   26.7838 H   0  0  0  0  0  0  0  0  0  0  0  0
    5.4665   -3.6775   25.6703 H   0  0  0  0  0  0  0  0  0  0  0  0
    6.4838   -3.9813   27.0716 H   0  0  0  0  0  0  0  0  0  0  0  0
    4.5873   -3.4990   28.5860 H   0  0  0  0  0  0  0  0  0  0  0  0
    3.5219   -3.1914   27.1677 H   0  0  0  0  0  0  0  0  0  0  0  0
    2.6041   -4.0118   29.2656 H   0  0  0  0  0  0  0  0  0  0  0  0
    1.1411   -6.7113   29.5609 H   0  0  0  0  0  0  0  0  0  0  0  0
    1.9166   -6.2192   32.2059 H   0  0  0  0  0  0  0  0  0  0  0  0
    1.0175   -3.4200   35.1123 H   0  0  0  0  0  0  0  0  0  0  0  0
    1.2369   -3.3953   35.0219 H   0  0  0  0  0  0  0  0  0  0  0  0
   -0.9764   -3.6553   34.0615 H   0  0  0  0  0  0  0  0  0  0  0  0
   -1.6934   -2.8644   31.8962 H   0  0  0  0  0  0  0  0  0  0  0  0
   -0.1959   -3.9591   28.6880 H   0  0  0  0  0  0  0  0  0  0  0  0
   -1.9511   -2.3472   28.3854 H   0  0  0  0  0  0  0  0  0  0  0  0
   -1.9441   -1.9436   30.0659 H   0  0  0  0  0  0  0  0  0  0  0  0
    0.3538   -1.5796   28.0545 H   0  0  0  0  0  0  0  0  0  0  0  0
   -0.7528   -0.3230   28.5915 H   0  0  0  0  0  0  0  0  0  0  0  0
    1.3054   -1.7993   30.2945 H   0  0  0  0  0  0  0  0  0  0  0  0
    1.3131    0.8623   28.8885 H   0  0  0  0  0  0  0  0  0  0  0  0
    2.6522   -0.1819   29.3883 H   0  0  0  0  0  0  0  0  0  0  0  0
    1.3113    2.0073   30.8395 H   0  0  0  0  0  0  0  0  0  0  0  0
    2.8744    1.2709   31.2069 H   0  0  0  0  0  0  0  0  0  0  0  0
    0.6811    0.8998   32.8138 H   0  0  0  0  0  0  0  0  0  0  0  0
    5.6315   -2.2839   32.5020 H   0  0  0  0  0  0  0  0  0  0  0  0
    4.2835   -4.3077   31.9839 H   0  0  0  0  0  0  0  0  0  0  0  0
    5.7106   -4.7115   32.9516 H   0  0  0  0  0  0  0  0  0  0  0  0
    4.1109   -4.6558   33.7096 H   0  0  0  0  0  0  0  0  0  0  0  0
    5.0528   -2.9318   35.4419 H   0  0  0  0  0  0  0  0  0  0  0  0
    5.8060   -1.4474   34.8426 H   0  0  0  0  0  0  0  0  0  0  0  0
    6.6279   -3.0027   34.6363 H   0  0  0  0  0  0  0  0  0  0  0  0
   -0.6289    0.2877   31.0157 H   0  0  0  0  0  0  0  0  0  0  0  0
  1  2  1  0
  2  3  1  0
  3  4  1  0
  4  5  2  0
  4  6  1  0
  6  7  2  3
  7  8  1  0
  8  9  2  0
  9 10  1  0
 10 11  1  0
 11 12  1  0
 11 13  2  0
 10 14  2  0
 14 15  1  0
 15 16  2  0
 16 17  1  0
 17 18  1  0
 18 19  1  0
 19 20  1  0
 20 21  1  0
 21 22  1  0
 22 23  1  0
 23 24  1  0
 24 25  2  0
 25 26  1  0
 26 27  1  0
 27 28  1  0
 28 29  1  0
 28 30  1  0
 27 31  2  0
 23 32  1  0
 16  8  1  0
 32 20  1  0
 31 24  1  0
  1 33  1  0
  1 34  1  0
  1 35  1  0
  2 36  1  0
  2 37  1  0
  6 38  1  0
  7 39  1  0
  9 40  1  0
 12 41  1  0
 12 42  1  0
 14 43  1  0
 15 44  1  0
 17 45  1  0
 18 46  1  0
 18 47  1  0
 19 48  1  0
 19 49  1  0
 20 50  1  0
 21 51  1  0
 21 52  1  0
 22 53  1  0
 22 54  1  0
 23 55  1  0
 28 56  1  0
 29 57  1  0
 29 58  1  0
 29 59  1  0
 30 60  1  0
 30 61  1  0
 30 62  1  0
 32 63  1  0
M  END
>  <Energy>  (224) 
233.57718534358867

>  <compound_id>  (224) 
303

>  <target_id>  (224) 
1

>  <reference_id>  (224) 
200

>  <inspiration_ids>  (224) 
[200, 202]

>  <energy_score>  (224) 
117.77954556288694

>  <distance_score>  (224) 
2.7042927751225174

>  <path>  (224) 
/opt/xchem-fragalysis-2/maxwin/BulkDock/SCRATCH/505737/C303-P200/C303-P200.minimised.mol

>  <scratch_subdir>  (224) 
/opt/xchem-fragalysis-2/maxwin/BulkDock/SCRATCH/505737/C303-P200

>  <fragmenstein_runtime>  (224) 
8.900012016296387

>  <fragmenstein_outcome>  (224) 
too moved

>  <fragmenstein_mode>  (224) 
expansion

>  <fragmenstein_error>  (224) 


$$$$
C303-P202
     RDKit          3D

 63 65  0  0  0  0  0  0  0  0999 V2000
    5.4475   -3.3907   28.3072 C   0  0  0  0  0  0  0  0  0  0  0  0
    4.2434   -3.6429   27.4193 C   0  0  0  0  0  0  0  0  0  0  0  0
    3.9994   -5.0626   27.3136 O   0  0  0  0  0  0  0  0  0  0  0  0
    3.2185   -5.7859   28.1457 C   0  0  0  0  0  0  0  0  0  0  0  0
    3.0519   -6.9934   27.9792 O   0  0  0  0  0  0  0  0  0  0  0  0
    2.5711   -5.0803   29.2640 C   0  0  0  0  0  0  0  0  0  0  0  0
    1.4964   -5.6364   29.8408 C   0  0  0  0  0  0  0  0  0  0  0  0
    0.8607   -5.0572   31.0233 C   0  0  0  0  0  0  0  0  0  0  0  0
    1.4189   -5.4040   32.2593 C   0  0  0  0  0  0  0  0  0  0  0  0
    0.8795   -4.8931   33.4336 C   0  0  0  0  0  0  0  0  0  0  0  0
    1.5603   -5.1887   34.7150 C   0  0  0  0  0  0  0  0  0  0  0  0
    1.9872   -4.0021   35.4136 N   0  0  0  0  0  0  0  0  0  0  0  0
    1.6649   -6.3457   35.0049 O   0  0  0  0  0  0  0  0  0  0  0  0
   -0.2638   -4.1050   33.3985 C   0  0  0  0  0  0  0  0  0  0  0  0
   -0.8143   -3.7577   32.1652 C   0  0  0  0  0  0  0  0  0  0  0  0
   -0.2406   -4.1761   30.9530 C   0  0  0  0  0  0  0  0  0  0  0  0
   -0.7845   -3.7928   29.7245 N   0  0  0  0  0  0  0  0  0  0  0  0
   -1.3451   -2.4551   29.5377 C   0  0  0  0  0  0  0  0  0  0  0  0
   -0.3403   -1.4244   29.0351 C   0  0  0  0  0  0  0  0  0  0  0  0
    0.9009   -1.2338   29.8998 C   0  0  0  0  0  0  0  0  0  0  0  0
    1.7713   -0.0770   29.4026 C   0  0  0  0  0  0  0  0  0  0  0  0
    2.2969    0.5996   30.6668 C   0  0  0  0  0  0  0  0  0  0  0  0
    1.9013   -0.3289   31.8118 C   0  0  0  0  0  0  0  0  0  0  0  0
    2.9313   -1.3857   32.1511 C   0  0  0  0  0  0  0  0  0  0  0  0
    3.8088   -1.8599   31.2507 N   0  0  0  0  0  0  0  0  0  0  0  0
    4.6628   -2.6503   32.0071 O   0  0  0  0  0  0  0  0  0  0  0  0
    4.2159   -2.5917   33.2949 C   0  0  0  0  0  0  0  0  0  0  0  0
    5.0570   -3.2722   34.3246 C   0  0  0  0  0  0  0  0  0  0  0  0
    5.3036   -4.7375   33.9692 C   0  0  0  0  0  0  0  0  0  0  0  0
    6.3829   -2.5326   34.5068 C   0  0  0  0  0  0  0  0  0  0  0  0
    3.1103   -1.8832   33.4327 N   0  0  0  0  0  0  0  0  0  0  0  0
    0.6354   -0.9169   31.3166 N   0  0  0  0  0  0  0  0  0  0  0  0
    5.6508   -2.3193   28.3890 H   0  0  0  0  0  0  0  0  0  0  0  0
    6.3334   -3.8850   27.8946 H   0  0  0  0  0  0  0  0  0  0  0  0
    5.3005   -3.8002   29.3106 H   0  0  0  0  0  0  0  0  0  0  0  0
    3.3527   -3.1071   27.7614 H   0  0  0  0  0  0  0  0  0  0  0  0
    4.4560   -3.2854   26.4062 H   0  0  0  0  0  0  0  0  0  0  0  0
    2.9911   -4.1597   29.6425 H   0  0  0  0  0  0  0  0  0  0  0  0
    1.0723   -6.5790   29.5143 H   0  0  0  0  0  0  0  0  0  0  0  0
    2.2843   -6.0565   32.3183 H   0  0  0  0  0  0  0  0  0  0  0  0
    1.6216   -3.1639   34.9145 H   0  0  0  0  0  0  0  0  0  0  0  0
    1.8312   -3.1711   34.8003 H   0  0  0  0  0  0  0  0  0  0  0  0
   -0.7424   -3.7682   34.3154 H   0  0  0  0  0  0  0  0  0  0  0  0
   -1.7092   -3.1440   32.1796 H   0  0  0  0  0  0  0  0  0  0  0  0
   -0.2700   -4.1157   28.9100 H   0  0  0  0  0  0  0  0  0  0  0  0
   -2.1148   -2.5362   28.7682 H   0  0  0  0  0  0  0  0  0  0  0  0
   -1.8620   -2.0768   30.4234 H   0  0  0  0  0  0  0  0  0  0  0  0
   -0.0129   -1.7102   28.0297 H   0  0  0  0  0  0  0  0  0  0  0  0
   -0.8688   -0.4683   28.9241 H   0  0  0  0  0  0  0  0  0  0  0  0
    1.4897   -2.1558   29.8488 H   0  0  0  0  0  0  0  0  0  0  0  0
    1.2145    0.6483   28.7985 H   0  0  0  0  0  0  0  0  0  0  0  0
    2.5978   -0.4548   28.7900 H   0  0  0  0  0  0  0  0  0  0  0  0
    1.7911    1.5670   30.7833 H   0  0  0  0  0  0  0  0  0  0  0  0
    3.3721    0.7980   30.6077 H   0  0  0  0  0  0  0  0  0  0  0  0
    1.7080    0.2521   32.7212 H   0  0  0  0  0  0  0  0  0  0  0  0
    4.5276   -3.2347   35.2829 H   0  0  0  0  0  0  0  0  0  0  0  0
    5.8811   -4.8378   33.0431 H   0  0  0  0  0  0  0  0  0  0  0  0
    5.8606   -5.2406   34.7668 H   0  0  0  0  0  0  0  0  0  0  0  0
    4.3615   -5.2756   33.8279 H   0  0  0  0  0  0  0  0  0  0  0  0
    6.2126   -1.4860   34.7839 H   0  0  0  0  0  0  0  0  0  0  0  0
    6.9786   -2.5388   33.5869 H   0  0  0  0  0  0  0  0  0  0  0  0
    6.9805   -2.9966   35.2987 H   0  0  0  0  0  0  0  0  0  0  0  0
   -0.0764   -0.1873   31.3489 H   0  0  0  0  0  0  0  0  0  0  0  0
  1  2  1  0
  2  3  1  0
  3  4  1  0
  4  5  2  0
  4  6  1  0
  6  7  2  3
  7  8  1  0
  8  9  2  0
  9 10  1  0
 10 11  1  0
 11 12  1  0
 11 13  2  0
 10 14  2  0
 14 15  1  0
 15 16  2  0
 16 17  1  0
 17 18  1  0
 18 19  1  0
 19 20  1  0
 20 21  1  0
 21 22  1  0
 22 23  1  0
 23 24  1  0
 24 25  2  0
 25 26  1  0
 26 27  1  0
 27 28  1  0
 28 29  1  0
 28 30  1  0
 27 31  2  0
 23 32  1  0
 16  8  1  0
 32 20  1  0
 31 24  1  0
  1 33  1  0
  1 34  1  0
  1 35  1  0
  2 36  1  0
  2 37  1  0
  6 38  1  0
  7 39  1  0
  9 40  1  0
 12 41  1  0
 12 42  1  0
 14 43  1  0
 15 44  1  0
 17 45  1  0
 18 46  1  0
 18 47  1  0
 19 48  1  0
 19 49  1  0
 20 50  1  0
 21 51  1  0
 21 52  1  0
 22 53  1  0
 22 54  1  0
 23 55  1  0
 28 56  1  0
 29 57  1  0
 29 58  1  0
 29 59  1  0
 30 60  1  0
 30 61  1  0
 30 62  1  0
 32 63  1  0
M  END
>  <Energy>  (225) 
234.41595643965135

>  <compound_id>  (225) 
303

>  <target_id>  (225) 
1

>  <reference_id>  (225) 
202

>  <inspiration_ids>  (225) 
[200, 202]

>  <energy_score>  (225) 
118.61831665895022

>  <distance_score>  (225) 
2.794619731855948

>  <path>  (225) 
/opt/xchem-fragalysis-2/maxwin/BulkDock/SCRATCH/505737/C303-P202/C303-P202.minimised.mol

>  <scratch_subdir>  (225) 
/opt/xchem-fragalysis-2/maxwin/BulkDock/SCRATCH/505737/C303-P202

>  <fragmenstein_runtime>  (225) 
11.083250999450684

>  <fragmenstein_outcome>  (225) 
too moved

>  <fragmenstein_mode>  (225) 
expansion

>  <fragmenstein_error>  (225) 


$$$$
C266-P201
     RDKit          3D

 54 56  0  0  0  0  0  0  0  0999 V2000
    5.4891   -3.8398   30.4406 C   0  0  0  0  0  0  0  0  0  0  0  0
    5.6276   -3.8591   28.9277 C   0  0  0  0  0  0  0  0  0  0  0  0
    5.4075   -5.1809   28.3893 O   0  0  0  0  0  0  0  0  0  0  0  0
    4.2132   -5.8120   28.3439 C   0  0  0  0  0  0  0  0  0  0  0  0
    4.1195   -6.9976   28.0341 O   0  0  0  0  0  0  0  0  0  0  0  0
    3.0262   -5.0438   28.7629 C   0  0  0  0  0  0  0  0  0  0  0  0
    1.9039   -5.7132   29.0632 C   0  0  0  0  0  0  0  0  0  0  0  0
    0.6605   -5.1286   29.6879 C   0  0  0  0  0  0  0  0  0  0  0  0
    0.8718   -3.8403   30.4846 C   0  0  0  0  0  0  0  0  0  0  0  0
   -0.3286   -3.5398   31.3617 C   0  0  0  0  0  0  0  0  0  0  0  0
   -0.6537   -4.6442   32.3683 C   0  0  0  0  0  0  0  0  0  0  0  0
   -0.1508   -6.0627   32.0030 C   0  0  0  0  0  0  0  0  0  0  0  0
    1.2455   -6.2807   32.6407 C   0  0  0  0  0  0  0  0  0  0  0  0
    1.2379   -6.6071   34.1095 C   0  0  0  0  0  0  0  0  0  0  0  0
    0.1510   -7.0305   34.7616 C   0  0  0  0  0  0  0  0  0  0  0  0
   -1.1640   -7.2234   34.0814 C   0  0  0  0  0  0  0  0  0  0  0  0
   -1.1182   -7.1485   32.5506 C   0  0  0  0  0  0  0  0  0  0  0  0
   -0.8099   -8.4209   31.9836 O   0  0  0  0  0  0  0  0  0  0  0  0
    0.1192   -7.2711   36.1096 O   0  0  0  0  0  0  0  0  0  0  0  0
    1.1883   -6.6731   36.8413 C   0  0  0  0  0  0  0  0  0  0  0  0
    1.3617   -7.4924   38.1195 C   0  0  0  0  0  0  0  0  0  0  0  0
    0.8128   -5.2335   37.2122 C   0  0  0  0  0  0  0  0  0  0  0  0
    2.4588   -6.6792   36.1763 O   0  0  0  0  0  0  0  0  0  0  0  0
    2.5013   -6.4701   34.8477 C   0  0  0  0  0  0  0  0  0  0  0  0
    3.5500   -6.2251   34.2639 O   0  0  0  0  0  0  0  0  0  0  0  0
   -0.0871   -6.2261   30.4685 C   0  0  0  0  0  0  0  0  0  0  0  0
    4.4790   -4.0832   30.7774 H   0  0  0  0  0  0  0  0  0  0  0  0
    6.1560   -4.5829   30.8907 H   0  0  0  0  0  0  0  0  0  0  0  0
    5.7502   -2.8532   30.8347 H   0  0  0  0  0  0  0  0  0  0  0  0
    4.9783   -3.1289   28.4345 H   0  0  0  0  0  0  0  0  0  0  0  0
    6.6552   -3.5887   28.6615 H   0  0  0  0  0  0  0  0  0  0  0  0
    3.0837   -3.9742   28.8847 H   0  0  0  0  0  0  0  0  0  0  0  0
    1.8888   -6.7866   28.8807 H   0  0  0  0  0  0  0  0  0  0  0  0
    0.0059   -4.8349   28.8631 H   0  0  0  0  0  0  0  0  0  0  0  0
    1.0186   -3.0023   29.7904 H   0  0  0  0  0  0  0  0  0  0  0  0
    1.7796   -3.8767   31.0947 H   0  0  0  0  0  0  0  0  0  0  0  0
   -1.2020   -3.3734   30.7188 H   0  0  0  0  0  0  0  0  0  0  0  0
   -0.1705   -2.5963   31.8976 H   0  0  0  0  0  0  0  0  0  0  0  0
   -1.7362   -4.6495   32.4828 H   0  0  0  0  0  0  0  0  0  0  0  0
   -0.2690   -4.3431   33.3510 H   0  0  0  0  0  0  0  0  0  0  0  0
    1.8697   -5.3954   32.4933 H   0  0  0  0  0  0  0  0  0  0  0  0
    1.7466   -7.0845   32.1148 H   0  0  0  0  0  0  0  0  0  0  0  0
   -1.6117   -8.1657   34.4024 H   0  0  0  0  0  0  0  0  0  0  0  0
   -1.8031   -6.4293   34.4609 H   0  0  0  0  0  0  0  0  0  0  0  0
   -2.1139   -6.9370   32.1732 H   0  0  0  0  0  0  0  0  0  0  0  0
   -1.3004   -9.0982   32.4876 H   0  0  0  0  0  0  0  0  0  0  0  0
    2.1410   -7.0708   38.7634 H   0  0  0  0  0  0  0  0  0  0  0  0
    0.4254   -7.5606   38.6838 H   0  0  0  0  0  0  0  0  0  0  0  0
    1.6694   -8.5143   37.8761 H   0  0  0  0  0  0  0  0  0  0  0  0
   -0.1384   -5.1996   37.7544 H   0  0  0  0  0  0  0  0  0  0  0  0
    1.5932   -4.7646   37.8209 H   0  0  0  0  0  0  0  0  0  0  0  0
    0.6927   -4.6127   36.3172 H   0  0  0  0  0  0  0  0  0  0  0  0
    0.3101   -7.2189   30.2200 H   0  0  0  0  0  0  0  0  0  0  0  0
   -1.1147   -6.2551   30.0890 H   0  0  0  0  0  0  0  0  0  0  0  0
  1  2  1  0
  2  3  1  0
  3  4  1  0
  4  5  2  0
  4  6  1  0
  6  7  2  3
  7  8  1  0
  8  9  1  0
  9 10  1  0
 10 11  1  0
 11 12  1  0
 12 13  1  0
 13 14  1  0
 14 15  2  0
 15 16  1  0
 16 17  1  0
 17 18  1  0
 15 19  1  0
 19 20  1  0
 20 21  1  0
 20 22  1  0
 20 23  1  0
 23 24  1  0
 24 25  2  0
 12 26  1  0
 26  8  1  0
 17 12  1  0
 24 14  1  0
  1 27  1  0
  1 28  1  0
  1 29  1  0
  2 30  1  0
  2 31  1  0
  6 32  1  0
  7 33  1  0
  8 34  1  0
  9 35  1  0
  9 36  1  0
 10 37  1  0
 10 38  1  0
 11 39  1  0
 11 40  1  0
 13 41  1  0
 13 42  1  0
 16 43  1  0
 16 44  1  0
 17 45  1  0
 18 46  1  0
 21 47  1  0
 21 48  1  0
 21 49  1  0
 22 50  1  0
 22 51  1  0
 22 52  1  0
 26 53  1  0
 26 54  1  0
M  END
>  <Energy>  (226) 
44.716137276221815

>  <compound_id>  (226) 
266

>  <target_id>  (226) 
1

>  <reference_id>  (226) 
201

>  <inspiration_ids>  (226) 
[201, 25]

>  <energy_score>  (226) 
-50.3725132354341

>  <distance_score>  (226) 
1.1167834053520342

>  <path>  (226) 
/opt/xchem-fragalysis-2/maxwin/BulkDock/SCRATCH/505737/C266-P201/C266-P201.minimised.mol

>  <scratch_subdir>  (226) 
/opt/xchem-fragalysis-2/maxwin/BulkDock/SCRATCH/505737/C266-P201

>  <fragmenstein_runtime>  (226) 
5.390151023864746

>  <fragmenstein_outcome>  (226) 
too moved

>  <fragmenstein_mode>  (226) 
expansion

>  <fragmenstein_error>  (226) 


$$$$
C266-P25
     RDKit          3D

 54 56  0  0  0  0  0  0  0  0999 V2000
    5.7862   -4.0491   29.5393 C   0  0  0  0  0  0  0  0  0  0  0  0
    5.5322   -3.4004   28.1853 C   0  0  0  0  0  0  0  0  0  0  0  0
    4.1962   -2.8902   28.1986 O   0  0  0  0  0  0  0  0  0  0  0  0
    3.2459   -3.8061   27.9009 C   0  0  0  0  0  0  0  0  0  0  0  0
    3.3533   -4.7992   27.2024 O   0  0  0  0  0  0  0  0  0  0  0  0
    2.0523   -3.4309   28.6757 C   0  0  0  0  0  0  0  0  0  0  0  0
    1.3242   -4.4229   29.2136 C   0  0  0  0  0  0  0  0  0  0  0  0
    0.3589   -4.2500   30.3788 C   0  0  0  0  0  0  0  0  0  0  0  0
    0.8615   -3.1603   31.3275 C   0  0  0  0  0  0  0  0  0  0  0  0
    0.1179   -3.0615   32.6489 C   0  0  0  0  0  0  0  0  0  0  0  0
   -0.6946   -4.2916   33.0187 C   0  0  0  0  0  0  0  0  0  0  0  0
   -0.0559   -5.6334   32.6346 C   0  0  0  0  0  0  0  0  0  0  0  0
    1.2658   -5.8354   33.4299 C   0  0  0  0  0  0  0  0  0  0  0  0
    1.1005   -6.1640   34.8802 C   0  0  0  0  0  0  0  0  0  0  0  0
    0.0222   -6.7970   35.3470 C   0  0  0  0  0  0  0  0  0  0  0  0
   -1.1038   -7.2159   34.4616 C   0  0  0  0  0  0  0  0  0  0  0  0
   -0.9848   -6.8365   32.9763 C   0  0  0  0  0  0  0  0  0  0  0  0
   -0.6985   -7.9931   32.1961 O   0  0  0  0  0  0  0  0  0  0  0  0
   -0.1666   -7.0899   36.6739 O   0  0  0  0  0  0  0  0  0  0  0  0
    0.6616   -6.3311   37.5612 C   0  0  0  0  0  0  0  0  0  0  0  0
    0.7858   -7.1513   38.8454 C   0  0  0  0  0  0  0  0  0  0  0  0
   -0.0112   -4.9905   37.8766 C   0  0  0  0  0  0  0  0  0  0  0  0
    1.9991   -6.1003   37.1008 O   0  0  0  0  0  0  0  0  0  0  0  0
    2.2155   -5.8733   35.7919 C   0  0  0  0  0  0  0  0  0  0  0  0
    3.2994   -5.4926   35.3678 O   0  0  0  0  0  0  0  0  0  0  0  0
    0.2537   -5.5948   31.1177 C   0  0  0  0  0  0  0  0  0  0  0  0
    5.1343   -4.9150   29.6881 H   0  0  0  0  0  0  0  0  0  0  0  0
    6.8252   -4.3817   29.6169 H   0  0  0  0  0  0  0  0  0  0  0  0
    5.5779   -3.3456   30.3522 H   0  0  0  0  0  0  0  0  0  0  0  0
    6.2081   -2.5515   28.0429 H   0  0  0  0  0  0  0  0  0  0  0  0
    5.6983   -4.1015   27.3598 H   0  0  0  0  0  0  0  0  0  0  0  0
    1.9409   -2.3864   28.9334 H   0  0  0  0  0  0  0  0  0  0  0  0
    1.5668   -5.4387   28.9163 H   0  0  0  0  0  0  0  0  0  0  0  0
   -0.6288   -3.9758   29.9914 H   0  0  0  0  0  0  0  0  0  0  0  0
    0.8158   -2.1760   30.8448 H   0  0  0  0  0  0  0  0  0  0  0  0
    1.9238   -3.3312   31.5530 H   0  0  0  0  0  0  0  0  0  0  0  0
   -0.5585   -2.1973   32.6201 H   0  0  0  0  0  0  0  0  0  0  0  0
    0.8369   -2.8368   33.4467 H   0  0  0  0  0  0  0  0  0  0  0  0
   -1.6315   -4.1722   32.4819 H   0  0  0  0  0  0  0  0  0  0  0  0
   -0.9272   -4.2485   34.0873 H   0  0  0  0  0  0  0  0  0  0  0  0
    1.9176   -4.9641   33.3083 H   0  0  0  0  0  0  0  0  0  0  0  0
    1.8049   -6.6804   33.0152 H   0  0  0  0  0  0  0  0  0  0  0  0
   -1.2513   -8.2935   34.5653 H   0  0  0  0  0  0  0  0  0  0  0  0
   -1.9951   -6.7511   34.8784 H   0  0  0  0  0  0  0  0  0  0  0  0
   -1.9630   -6.5841   32.6337 H   0  0  0  0  0  0  0  0  0  0  0  0
   -1.4120   -8.6389   32.3624 H   0  0  0  0  0  0  0  0  0  0  0  0
    1.2529   -8.1204   38.6334 H   0  0  0  0  0  0  0  0  0  0  0  0
    1.4147   -6.6448   39.5854 H   0  0  0  0  0  0  0  0  0  0  0  0
   -0.1945   -7.3557   39.2880 H   0  0  0  0  0  0  0  0  0  0  0  0
   -1.0231   -5.1373   38.2689 H   0  0  0  0  0  0  0  0  0  0  0  0
    0.5759   -4.4130   38.5986 H   0  0  0  0  0  0  0  0  0  0  0  0
   -0.1041   -4.3728   36.9764 H   0  0  0  0  0  0  0  0  0  0  0  0
    1.2389   -6.0186   31.0454 H   0  0  0  0  0  0  0  0  0  0  0  0
   -0.4220   -6.2426   30.5504 H   0  0  0  0  0  0  0  0  0  0  0  0
  1  2  1  0
  2  3  1  0
  3  4  1  0
  4  5  2  0
  4  6  1  0
  6  7  2  3
  7  8  1  0
  8  9  1  0
  9 10  1  0
 10 11  1  0
 11 12  1  0
 12 13  1  0
 13 14  1  0
 14 15  2  0
 15 16  1  0
 16 17  1  0
 17 18  1  0
 15 19  1  0
 19 20  1  0
 20 21  1  0
 20 22  1  0
 20 23  1  0
 23 24  1  0
 24 25  2  0
 12 26  1  0
 26  8  1  0
 17 12  1  0
 24 14  1  0
  1 27  1  0
  1 28  1  0
  1 29  1  0
  2 30  1  0
  2 31  1  0
  6 32  1  0
  7 33  1  0
  8 34  1  0
  9 35  1  0
  9 36  1  0
 10 37  1  0
 10 38  1  0
 11 39  1  0
 11 40  1  0
 13 41  1  0
 13 42  1  0
 16 43  1  0
 16 44  1  0
 17 45  1  0
 18 46  1  0
 21 47  1  0
 21 48  1  0
 21 49  1  0
 22 50  1  0
 22 51  1  0
 22 52  1  0
 26 53  1  0
 26 54  1  0
M  END
>  <Energy>  (227) 
43.234813742868035

>  <compound_id>  (227) 
266

>  <target_id>  (227) 
1

>  <reference_id>  (227) 
25

>  <inspiration_ids>  (227) 
[201, 25]

>  <energy_score>  (227) 
-51.85383676878871

>  <distance_score>  (227) 
1.8617781918412362

>  <path>  (227) 
/opt/xchem-fragalysis-2/maxwin/BulkDock/SCRATCH/505737/C266-P25/C266-P25.minimised.mol

>  <scratch_subdir>  (227) 
/opt/xchem-fragalysis-2/maxwin/BulkDock/SCRATCH/505737/C266-P25

>  <fragmenstein_runtime>  (227) 
5.45855975151062

>  <fragmenstein_outcome>  (227) 
too moved

>  <fragmenstein_mode>  (227) 
expansion

>  <fragmenstein_error>  (227) 


$$$$
C267-P201
     RDKit          3D

 43 45  0  0  0  0  0  0  0  0999 V2000
    5.8476   -4.0586   29.9424 C   0  0  0  0  0  0  0  0  0  0  0  0
    5.7661   -4.4448   28.4723 C   0  0  0  0  0  0  0  0  0  0  0  0
    4.3927   -4.3586   28.0866 O   0  0  0  0  0  0  0  0  0  0  0  0
    3.6674   -5.4671   28.3510 C   0  0  0  0  0  0  0  0  0  0  0  0
    4.0346   -6.6325   28.3388 O   0  0  0  0  0  0  0  0  0  0  0  0
    2.3319   -5.0038   28.7703 C   0  0  0  0  0  0  0  0  0  0  0  0
    1.4833   -5.9128   29.2650 C   0  0  0  0  0  0  0  0  0  0  0  0
    0.2110   -5.6628   30.0454 C   0  0  0  0  0  0  0  0  0  0  0  0
   -0.1100   -4.1910   30.3427 C   0  0  0  0  0  0  0  0  0  0  0  0
    0.7050   -3.5677   31.4560 C   0  0  0  0  0  0  0  0  0  0  0  0
    1.1458   -4.5674   32.5115 C   0  0  0  0  0  0  0  0  0  0  0  0
    0.2953   -5.8411   32.6234 C   0  0  0  0  0  0  0  0  0  0  0  0
    0.2454   -6.5802   31.2809 C   0  0  0  0  0  0  0  0  0  0  0  0
   -1.1289   -5.5522   32.9664 N   0  0  0  0  0  0  0  0  0  0  0  0
   -1.4411   -6.6723   33.8813 N   0  0  0  0  0  0  0  0  0  0  0  0
   -0.2635   -7.1482   34.4072 C   0  0  0  0  0  0  0  0  0  0  0  0
   -0.0693   -7.7321   35.6088 C   0  0  0  0  0  0  0  0  0  0  0  0
    1.2118   -7.8678   36.1228 N   0  0  0  0  0  0  0  0  0  0  0  0
    2.2893   -7.3564   35.4332 C   0  0  0  0  0  0  0  0  0  0  0  0
    2.0989   -6.7898   34.2245 C   0  0  0  0  0  0  0  0  0  0  0  0
    0.8357   -6.7359   33.6538 N   0  0  0  0  0  0  0  0  0  0  0  0
    5.2880   -4.7620   30.5671 H   0  0  0  0  0  0  0  0  0  0  0  0
    6.8879   -4.0460   30.2797 H   0  0  0  0  0  0  0  0  0  0  0  0
    5.4113   -3.0677   30.1067 H   0  0  0  0  0  0  0  0  0  0  0  0
    6.3281   -3.7304   27.8626 H   0  0  0  0  0  0  0  0  0  0  0  0
    6.1844   -5.4412   28.2923 H   0  0  0  0  0  0  0  0  0  0  0  0
    2.1651   -3.9354   28.8139 H   0  0  0  0  0  0  0  0  0  0  0  0
    1.7426   -6.9652   29.1548 H   0  0  0  0  0  0  0  0  0  0  0  0
   -0.6277   -6.0260   29.4517 H   0  0  0  0  0  0  0  0  0  0  0  0
   -1.1519   -4.1192   30.6634 H   0  0  0  0  0  0  0  0  0  0  0  0
   -0.0553   -3.5760   29.4363 H   0  0  0  0  0  0  0  0  0  0  0  0
    1.5901   -3.0667   31.0462 H   0  0  0  0  0  0  0  0  0  0  0  0
    0.1112   -2.7737   31.9265 H   0  0  0  0  0  0  0  0  0  0  0  0
    2.1780   -4.8472   32.2604 H   0  0  0  0  0  0  0  0  0  0  0  0
    1.2096   -4.0560   33.4814 H   0  0  0  0  0  0  0  0  0  0  0  0
    1.0866   -7.2750   31.2322 H   0  0  0  0  0  0  0  0  0  0  0  0
   -0.6275   -7.2507   31.2414 H   0  0  0  0  0  0  0  0  0  0  0  0
   -1.1420   -4.7052   33.5445 H   0  0  0  0  0  0  0  0  0  0  0  0
   -2.0685   -6.4331   34.6469 H   0  0  0  0  0  0  0  0  0  0  0  0
   -0.8684   -8.0637   36.2590 H   0  0  0  0  0  0  0  0  0  0  0  0
    1.3151   -8.2509   37.0566 H   0  0  0  0  0  0  0  0  0  0  0  0
    3.2494   -7.4192   35.9311 H   0  0  0  0  0  0  0  0  0  0  0  0
    2.9105   -6.3461   33.6635 H   0  0  0  0  0  0  0  0  0  0  0  0
  1  2  1  0
  2  3  1  0
  3  4  1  0
  4  5  2  0
  4  6  1  0
  6  7  2  3
  7  8  1  0
  8  9  1  0
  9 10  1  0
 10 11  1  0
 11 12  1  0
 12 13  1  0
 12 14  1  0
 14 15  1  0
 15 16  1  0
 16 17  2  0
 17 18  1  0
 18 19  1  0
 19 20  2  0
 20 21  1  0
 13  8  1  0
 21 16  1  0
 21 12  1  0
  1 22  1  0
  1 23  1  0
  1 24  1  0
  2 25  1  0
  2 26  1  0
  6 27  1  0
  7 28  1  0
  8 29  1  0
  9 30  1  0
  9 31  1  0
 10 32  1  0
 10 33  1  0
 11 34  1  0
 11 35  1  0
 13 36  1  0
 13 37  1  0
 14 38  1  0
 15 39  1  0
 17 40  1  0
 18 41  1  0
 19 42  1  0
 20 43  1  0
M  END
>  <Energy>  (228) 
94.72538704772991

>  <compound_id>  (228) 
267

>  <target_id>  (228) 
1

>  <reference_id>  (228) 
201

>  <inspiration_ids>  (228) 
[201, 40]

>  <energy_score>  (228) 
-53.22220990282699

>  <distance_score>  (228) 
1.7178950241883557

>  <path>  (228) 
/opt/xchem-fragalysis-2/maxwin/BulkDock/SCRATCH/505737/C267-P201/C267-P201.minimised.mol

>  <scratch_subdir>  (228) 
/opt/xchem-fragalysis-2/maxwin/BulkDock/SCRATCH/505737/C267-P201

>  <fragmenstein_runtime>  (228) 
2.5411760807037354

>  <fragmenstein_outcome>  (228) 
too moved

>  <fragmenstein_mode>  (228) 
expansion

>  <fragmenstein_error>  (228) 


$$$$
C267-P40
     RDKit          3D

 43 45  0  0  0  0  0  0  0  0999 V2000
    5.5612   -4.2099   29.4277 C   0  0  0  0  0  0  0  0  0  0  0  0
    5.5015   -4.4264   27.9181 C   0  0  0  0  0  0  0  0  0  0  0  0
    4.1490   -4.2125   27.5019 O   0  0  0  0  0  0  0  0  0  0  0  0
    3.3644   -5.3095   27.5997 C   0  0  0  0  0  0  0  0  0  0  0  0
    3.6533   -6.4671   27.3563 O   0  0  0  0  0  0  0  0  0  0  0  0
    2.0840   -4.8520   28.1686 C   0  0  0  0  0  0  0  0  0  0  0  0
    1.3578   -5.7474   28.8553 C   0  0  0  0  0  0  0  0  0  0  0  0
    0.3187   -5.4194   29.9091 C   0  0  0  0  0  0  0  0  0  0  0  0
    0.1530   -3.9177   30.1783 C   0  0  0  0  0  0  0  0  0  0  0  0
   -0.7436   -3.6372   31.3734 C   0  0  0  0  0  0  0  0  0  0  0  0
   -0.2573   -4.3541   32.6237 C   0  0  0  0  0  0  0  0  0  0  0  0
   -0.0624   -5.8678   32.4448 C   0  0  0  0  0  0  0  0  0  0  0  0
    0.7454   -6.1577   31.1813 C   0  0  0  0  0  0  0  0  0  0  0  0
   -1.3796   -6.5831   32.3159 N   0  0  0  0  0  0  0  0  0  0  0  0
   -1.1665   -7.7642   33.1473 N   0  0  0  0  0  0  0  0  0  0  0  0
   -0.1519   -7.5154   34.0372 C   0  0  0  0  0  0  0  0  0  0  0  0
    0.1443   -8.0742   35.2326 C   0  0  0  0  0  0  0  0  0  0  0  0
    1.2465   -7.6554   35.9668 N   0  0  0  0  0  0  0  0  0  0  0  0
    1.9913   -6.5787   35.5254 C   0  0  0  0  0  0  0  0  0  0  0  0
    1.6822   -5.9829   34.3570 C   0  0  0  0  0  0  0  0  0  0  0  0
    0.6226   -6.4422   33.5986 N   0  0  0  0  0  0  0  0  0  0  0  0
    4.9436   -4.9452   29.9530 H   0  0  0  0  0  0  0  0  0  0  0  0
    6.5899   -4.2973   29.7883 H   0  0  0  0  0  0  0  0  0  0  0  0
    5.1758   -3.2194   29.6911 H   0  0  0  0  0  0  0  0  0  0  0  0
    6.1257   -3.6864   27.4076 H   0  0  0  0  0  0  0  0  0  0  0  0
    5.8670   -5.4215   27.6411 H   0  0  0  0  0  0  0  0  0  0  0  0
    1.9240   -3.7817   28.2150 H   0  0  0  0  0  0  0  0  0  0  0  0
    1.6191   -6.8010   28.7733 H   0  0  0  0  0  0  0  0  0  0  0  0
   -0.6378   -5.8351   29.5915 H   0  0  0  0  0  0  0  0  0  0  0  0
   -0.2649   -3.4211   29.2937 H   0  0  0  0  0  0  0  0  0  0  0  0
    1.1290   -3.4548   30.3760 H   0  0  0  0  0  0  0  0  0  0  0  0
   -0.7627   -2.5572   31.5626 H   0  0  0  0  0  0  0  0  0  0  0  0
   -1.7714   -3.9200   31.1496 H   0  0  0  0  0  0  0  0  0  0  0  0
   -0.9422   -4.1479   33.4558 H   0  0  0  0  0  0  0  0  0  0  0  0
    0.6923   -3.8843   32.9104 H   0  0  0  0  0  0  0  0  0  0  0  0
    1.7948   -5.9063   31.3876 H   0  0  0  0  0  0  0  0  0  0  0  0
    0.6931   -7.2348   30.9799 H   0  0  0  0  0  0  0  0  0  0  0  0
   -2.0256   -6.0016   32.8510 H   0  0  0  0  0  0  0  0  0  0  0  0
   -1.9266   -8.3475   33.5006 H   0  0  0  0  0  0  0  0  0  0  0  0
   -0.4276   -8.8631   35.6997 H   0  0  0  0  0  0  0  0  0  0  0  0
    1.3428   -7.9674   36.9267 H   0  0  0  0  0  0  0  0  0  0  0  0
    2.7961   -6.2539   36.1746 H   0  0  0  0  0  0  0  0  0  0  0  0
    2.2293   -5.1299   33.9756 H   0  0  0  0  0  0  0  0  0  0  0  0
  1  2  1  0
  2  3  1  0
  3  4  1  0
  4  5  2  0
  4  6  1  0
  6  7  2  3
  7  8  1  0
  8  9  1  0
  9 10  1  0
 10 11  1  0
 11 12  1  0
 12 13  1  0
 12 14  1  0
 14 15  1  0
 15 16  1  0
 16 17  2  0
 17 18  1  0
 18 19  1  0
 19 20  2  0
 20 21  1  0
 13  8  1  0
 21 16  1  0
 21 12  1  0
  1 22  1  0
  1 23  1  0
  1 24  1  0
  2 25  1  0
  2 26  1  0
  6 27  1  0
  7 28  1  0
  8 29  1  0
  9 30  1  0
  9 31  1  0
 10 32  1  0
 10 33  1  0
 11 34  1  0
 11 35  1  0
 13 36  1  0
 13 37  1  0
 14 38  1  0
 15 39  1  0
 17 40  1  0
 18 41  1  0
 19 42  1  0
 20 43  1  0
M  END
>  <Energy>  (229) 
86.915794187313949

>  <compound_id>  (229) 
267

>  <target_id>  (229) 
1

>  <reference_id>  (229) 
40

>  <inspiration_ids>  (229) 
[201, 40]

>  <energy_score>  (229) 
-61.03180276324139

>  <distance_score>  (229) 
1.6766647048253909

>  <path>  (229) 
/opt/xchem-fragalysis-2/maxwin/BulkDock/SCRATCH/505737/C267-P40/C267-P40.minimised.mol

>  <scratch_subdir>  (229) 
/opt/xchem-fragalysis-2/maxwin/BulkDock/SCRATCH/505737/C267-P40

>  <fragmenstein_runtime>  (229) 
3.4562487602233887

>  <fragmenstein_outcome>  (229) 
too moved

>  <fragmenstein_mode>  (229) 
expansion

>  <fragmenstein_error>  (229) 


$$$$
C270-P201
     RDKit          3D

 64 66  0  0  0  0  0  0  0  0999 V2000
    5.6979   -4.2011   29.7869 C   0  0  0  0  0  0  0  0  0  0  0  0
    5.7110   -4.8500   28.4088 C   0  0  0  0  0  0  0  0  0  0  0  0
    4.3829   -4.7793   27.8855 O   0  0  0  0  0  0  0  0  0  0  0  0
    3.5882   -5.8125   28.2419 C   0  0  0  0  0  0  0  0  0  0  0  0
    3.8875   -6.9924   28.3335 O   0  0  0  0  0  0  0  0  0  0  0  0
    2.2862   -5.2375   28.6088 C   0  0  0  0  0  0  0  0  0  0  0  0
    1.4735   -5.9243   29.4247 C   0  0  0  0  0  0  0  0  0  0  0  0
    0.2290   -5.4311   30.1150 C   0  0  0  0  0  0  0  0  0  0  0  0
    0.2079   -5.7144   31.6354 C   0  0  0  0  0  0  0  0  0  0  0  0
    0.7984   -4.6044   32.5420 C   0  0  0  0  0  0  0  0  0  0  0  0
    2.3456   -4.6277   32.5374 C   0  0  0  0  0  0  0  0  0  0  0  0
    2.9200   -5.5123   32.0131 O   0  0  0  0  0  0  0  0  0  0  0  0
    2.8765   -3.3535   33.1820 N   0  0  0  0  0  0  0  0  0  0  0  0
    4.2651   -2.8030   33.2498 C   0  0  0  0  0  0  0  0  0  0  0  0
    3.1734   -3.5676   34.6954 C   0  0  0  0  0  0  0  0  0  0  0  0
    2.0196   -3.8042   35.6666 C   0  0  0  0  0  0  0  0  0  0  0  0
    0.7962   -3.1376   35.6130 C   0  0  0  0  0  0  0  0  0  0  0  0
   -0.1580   -3.2990   36.6254 C   0  0  0  0  0  0  0  0  0  0  0  0
    0.1265   -4.0682   37.7483 C   0  0  0  0  0  0  0  0  0  0  0  0
    1.3637   -4.6882   37.8533 C   0  0  0  0  0  0  0  0  0  0  0  0
    2.2949   -4.5648   36.8202 C   0  0  0  0  0  0  0  0  0  0  0  0
    0.1955   -3.2447   32.1129 C   0  0  0  0  0  0  0  0  0  0  0  0
    0.4002   -2.8509   30.6183 C   0  0  0  0  0  0  0  0  0  0  0  0
   -0.1736   -3.9961   29.7720 C   0  0  0  0  0  0  0  0  0  0  0  0
    1.8220   -2.6020   30.3087 N   0  0  0  0  0  0  0  0  0  0  0  0
    1.9621   -1.1824   30.0059 N   0  0  0  0  0  0  0  0  0  0  0  0
    0.7728   -0.5669   30.5710 C   0  0  0  0  0  0  0  0  0  0  0  0
   -0.2935   -1.5440   30.3796 N   0  0  0  0  0  0  0  0  0  0  0  0
   -0.8912   -1.4102   29.0262 C   0  0  0  0  0  0  0  0  0  0  0  0
   -1.6676   -0.1199   28.8058 C   0  0  0  0  0  0  0  0  0  0  0  0
    5.0584   -4.7593   30.4762 H   0  0  0  0  0  0  0  0  0  0  0  0
    6.7078   -4.1626   30.2045 H   0  0  0  0  0  0  0  0  0  0  0  0
    5.2987   -3.1830   29.7305 H   0  0  0  0  0  0  0  0  0  0  0  0
    6.3638   -4.2875   27.7340 H   0  0  0  0  0  0  0  0  0  0  0  0
    6.0837   -5.8793   28.4552 H   0  0  0  0  0  0  0  0  0  0  0  0
    2.1194   -4.2088   28.3183 H   0  0  0  0  0  0  0  0  0  0  0  0
    1.7168   -6.9520   29.6573 H   0  0  0  0  0  0  0  0  0  0  0  0
   -0.5666   -6.0738   29.7154 H   0  0  0  0  0  0  0  0  0  0  0  0
   -0.8464   -5.8314   31.9264 H   0  0  0  0  0  0  0  0  0  0  0  0
    0.6778   -6.6815   31.8556 H   0  0  0  0  0  0  0  0  0  0  0  0
    0.4857   -4.8401   33.5631 H   0  0  0  0  0  0  0  0  0  0  0  0
    4.5004   -2.6125   32.1925 H   0  0  0  0  0  0  0  0  0  0  0  0
    4.3282   -1.8002   33.6972 H   0  0  0  0  0  0  0  0  0  0  0  0
    5.0613   -3.5097   33.5315 H   0  0  0  0  0  0  0  0  0  0  0  0
    3.7930   -4.4788   34.7710 H   0  0  0  0  0  0  0  0  0  0  0  0
    3.6556   -2.7161   35.2116 H   0  0  0  0  0  0  0  0  0  0  0  0
    0.5752   -2.4486   34.8064 H   0  0  0  0  0  0  0  0  0  0  0  0
   -1.1157   -2.7890   36.5480 H   0  0  0  0  0  0  0  0  0  0  0  0
   -0.6095   -4.1722   38.5416 H   0  0  0  0  0  0  0  0  0  0  0  0
    1.6027   -5.2766   38.7356 H   0  0  0  0  0  0  0  0  0  0  0  0
    3.2610   -5.0530   36.9408 H   0  0  0  0  0  0  0  0  0  0  0  0
   -0.8837   -3.2767   32.3244 H   0  0  0  0  0  0  0  0  0  0  0  0
    0.5873   -2.4401   32.7405 H   0  0  0  0  0  0  0  0  0  0  0  0
   -0.0391   -3.8175   28.6986 H   0  0  0  0  0  0  0  0  0  0  0  0
   -1.2436   -3.9375   29.9403 H   0  0  0  0  0  0  0  0  0  0  0  0
    2.3817   -2.7890   31.1439 H   0  0  0  0  0  0  0  0  0  0  0  0
    1.9166   -1.0454   28.9927 H   0  0  0  0  0  0  0  0  0  0  0  0
    0.5863    0.4186   30.1358 H   0  0  0  0  0  0  0  0  0  0  0  0
    0.9256   -0.3897   31.6433 H   0  0  0  0  0  0  0  0  0  0  0  0
   -1.6393   -2.1942   28.8796 H   0  0  0  0  0  0  0  0  0  0  0  0
   -0.1417   -1.5176   28.2336 H   0  0  0  0  0  0  0  0  0  0  0  0
   -1.0214    0.7605   28.7866 H   0  0  0  0  0  0  0  0  0  0  0  0
   -2.4261    0.0008   29.5830 H   0  0  0  0  0  0  0  0  0  0  0  0
   -2.1869   -0.1584   27.8422 H   0  0  0  0  0  0  0  0  0  0  0  0
  1  2  1  0
  2  3  1  0
  3  4  1  0
  4  5  2  0
  4  6  1  0
  6  7  2  3
  7  8  1  0
  8  9  1  0
  9 10  1  0
 10 11  1  0
 11 12  2  0
 11 13  1  0
 13 14  1  0
 13 15  1  0
 15 16  1  0
 16 17  2  0
 17 18  1  0
 18 19  2  0
 19 20  1  0
 20 21  2  0
 10 22  1  0
 22 23  1  0
 23 24  1  0
 23 25  1  0
 25 26  1  0
 26 27  1  0
 27 28  1  0
 28 29  1  0
 29 30  1  0
 24  8  1  0
 21 16  1  0
 28 23  1  0
  1 31  1  0
  1 32  1  0
  1 33  1  0
  2 34  1  0
  2 35  1  0
  6 36  1  0
  7 37  1  0
  8 38  1  0
  9 39  1  0
  9 40  1  0
 10 41  1  0
 14 42  1  0
 14 43  1  0
 14 44  1  0
 15 45  1  0
 15 46  1  0
 17 47  1  0
 18 48  1  0
 19 49  1  0
 20 50  1  0
 21 51  1  0
 22 52  1  0
 22 53  1  0
 24 54  1  0
 24 55  1  0
 25 56  1  0
 26 57  1  0
 27 58  1  0
 27 59  1  0
 29 60  1  0
 29 61  1  0
 30 62  1  0
 30 63  1  0
 30 64  1  0
M  END
>  <Energy>  (230) 
107.56497482790733

>  <compound_id>  (230) 
270

>  <target_id>  (230) 
1

>  <reference_id>  (230) 
201

>  <inspiration_ids>  (230) 
[201, 56]

>  <energy_score>  (230) 
32.65745976699304

>  <distance_score>  (230) 
2.3248671869759825

>  <path>  (230) 
/opt/xchem-fragalysis-2/maxwin/BulkDock/SCRATCH/505737/C270-P201/C270-P201.minimised.mol

>  <scratch_subdir>  (230) 
/opt/xchem-fragalysis-2/maxwin/BulkDock/SCRATCH/505737/C270-P201

>  <fragmenstein_runtime>  (230) 
4.104753017425537

>  <fragmenstein_outcome>  (230) 
too moved

>  <fragmenstein_mode>  (230) 
expansion

>  <fragmenstein_error>  (230) 


$$$$
C270-P56
     RDKit          3D

 64 66  0  0  0  0  0  0  0  0999 V2000
    6.5619   -2.3570   29.4240 C   0  0  0  0  0  0  0  0  0  0  0  0
    5.5103   -1.7338   30.3184 C   0  0  0  0  0  0  0  0  0  0  0  0
    4.1941   -1.9030   29.7875 O   0  0  0  0  0  0  0  0  0  0  0  0
    3.7731   -3.1907   29.7858 C   0  0  0  0  0  0  0  0  0  0  0  0
    4.4457   -4.1650   30.0905 O   0  0  0  0  0  0  0  0  0  0  0  0
    2.3397   -3.2181   29.4155 C   0  0  0  0  0  0  0  0  0  0  0  0
    1.6851   -4.3736   29.6131 C   0  0  0  0  0  0  0  0  0  0  0  0
    0.2309   -4.5761   29.9207 C   0  0  0  0  0  0  0  0  0  0  0  0
    0.0935   -5.6484   31.0403 C   0  0  0  0  0  0  0  0  0  0  0  0
    0.4921   -5.1442   32.4527 C   0  0  0  0  0  0  0  0  0  0  0  0
    2.0361   -5.0136   32.6423 C   0  0  0  0  0  0  0  0  0  0  0  0
    2.7856   -5.5692   31.9298 O   0  0  0  0  0  0  0  0  0  0  0  0
    2.2967   -4.0297   33.7600 N   0  0  0  0  0  0  0  0  0  0  0  0
    3.5637   -3.3997   34.2201 C   0  0  0  0  0  0  0  0  0  0  0  0
    2.4722   -4.7476   35.1003 C   0  0  0  0  0  0  0  0  0  0  0  0
    1.5970   -4.1872   36.2157 C   0  0  0  0  0  0  0  0  0  0  0  0
    0.2462   -4.5503   36.3033 C   0  0  0  0  0  0  0  0  0  0  0  0
   -0.5412   -4.1040   37.3633 C   0  0  0  0  0  0  0  0  0  0  0  0
    0.0078   -3.2888   38.3493 C   0  0  0  0  0  0  0  0  0  0  0  0
    1.3446   -2.9130   38.2739 C   0  0  0  0  0  0  0  0  0  0  0  0
    2.1323   -3.3588   37.2135 C   0  0  0  0  0  0  0  0  0  0  0  0
   -0.3559   -3.9031   32.7608 C   0  0  0  0  0  0  0  0  0  0  0  0
   -0.2189   -2.7443   31.7512 C   0  0  0  0  0  0  0  0  0  0  0  0
   -0.5236   -3.2856   30.3201 C   0  0  0  0  0  0  0  0  0  0  0  0
    1.1296   -2.1613   31.8290 N   0  0  0  0  0  0  0  0  0  0  0  0
    1.0053   -0.7140   31.7418 N   0  0  0  0  0  0  0  0  0  0  0  0
   -0.4141   -0.4375   31.6402 C   0  0  0  0  0  0  0  0  0  0  0  0
   -1.0522   -1.6169   32.1882 N   0  0  0  0  0  0  0  0  0  0  0  0
   -2.4781   -1.6695   31.9372 C   0  0  0  0  0  0  0  0  0  0  0  0
   -3.2321   -0.6189   32.7466 C   0  0  0  0  0  0  0  0  0  0  0  0
    7.5615   -2.0630   29.7603 H   0  0  0  0  0  0  0  0  0  0  0  0
    6.5367   -3.4487   29.4105 H   0  0  0  0  0  0  0  0  0  0  0  0
    6.4334   -2.0182   28.3911 H   0  0  0  0  0  0  0  0  0  0  0  0
    5.5621   -2.1329   31.3384 H   0  0  0  0  0  0  0  0  0  0  0  0
    5.6864   -0.6552   30.3882 H   0  0  0  0  0  0  0  0  0  0  0  0
    1.8577   -2.2648   29.2575 H   0  0  0  0  0  0  0  0  0  0  0  0
    2.2975   -5.2499   29.7989 H   0  0  0  0  0  0  0  0  0  0  0  0
   -0.2310   -4.9816   29.0114 H   0  0  0  0  0  0  0  0  0  0  0  0
   -0.9546   -5.9721   31.0796 H   0  0  0  0  0  0  0  0  0  0  0  0
    0.6651   -6.5457   30.7873 H   0  0  0  0  0  0  0  0  0  0  0  0
    0.2006   -5.9315   33.1620 H   0  0  0  0  0  0  0  0  0  0  0  0
    4.4488   -4.0547   34.1815 H   0  0  0  0  0  0  0  0  0  0  0  0
    3.4946   -2.7245   35.0780 H   0  0  0  0  0  0  0  0  0  0  0  0
    3.7894   -2.7041   33.3967 H   0  0  0  0  0  0  0  0  0  0  0  0
    2.0390   -5.7460   34.9149 H   0  0  0  0  0  0  0  0  0  0  0  0
    3.4668   -5.0753   35.4553 H   0  0  0  0  0  0  0  0  0  0  0  0
   -0.2007   -5.1940   35.5506 H   0  0  0  0  0  0  0  0  0  0  0  0
   -1.5854   -4.3906   37.4210 H   0  0  0  0  0  0  0  0  0  0  0  0
   -0.6084   -2.9462   39.1760 H   0  0  0  0  0  0  0  0  0  0  0  0
    1.7806   -2.2866   39.0464 H   0  0  0  0  0  0  0  0  0  0  0  0
    3.1863   -3.0943   37.2061 H   0  0  0  0  0  0  0  0  0  0  0  0
   -1.3978   -4.2342   32.7650 H   0  0  0  0  0  0  0  0  0  0  0  0
   -0.1665   -3.5362   33.7742 H   0  0  0  0  0  0  0  0  0  0  0  0
   -0.3751   -2.5050   29.5629 H   0  0  0  0  0  0  0  0  0  0  0  0
   -1.5913   -3.5168   30.2707 H   0  0  0  0  0  0  0  0  0  0  0  0
    1.5120   -2.4034   32.7524 H   0  0  0  0  0  0  0  0  0  0  0  0
    1.4856   -0.3507   30.9172 H   0  0  0  0  0  0  0  0  0  0  0  0
   -0.6876   -0.2724   30.5902 H   0  0  0  0  0  0  0  0  0  0  0  0
   -0.6560    0.4662   32.2075 H   0  0  0  0  0  0  0  0  0  0  0  0
   -2.8764   -2.6382   32.2416 H   0  0  0  0  0  0  0  0  0  0  0  0
   -2.7002   -1.5476   30.8739 H   0  0  0  0  0  0  0  0  0  0  0  0
   -3.0115    0.3950   32.3996 H   0  0  0  0  0  0  0  0  0  0  0  0
   -2.9797   -0.6839   33.8106 H   0  0  0  0  0  0  0  0  0  0  0  0
   -4.3111   -0.7768   32.6549 H   0  0  0  0  0  0  0  0  0  0  0  0
  1  2  1  0
  2  3  1  0
  3  4  1  0
  4  5  2  0
  4  6  1  0
  6  7  2  3
  7  8  1  0
  8  9  1  0
  9 10  1  0
 10 11  1  0
 11 12  2  0
 11 13  1  0
 13 14  1  0
 13 15  1  0
 15 16  1  0
 16 17  2  0
 17 18  1  0
 18 19  2  0
 19 20  1  0
 20 21  2  0
 10 22  1  0
 22 23  1  0
 23 24  1  0
 23 25  1  0
 25 26  1  0
 26 27  1  0
 27 28  1  0
 28 29  1  0
 29 30  1  0
 24  8  1  0
 21 16  1  0
 28 23  1  0
  1 31  1  0
  1 32  1  0
  1 33  1  0
  2 34  1  0
  2 35  1  0
  6 36  1  0
  7 37  1  0
  8 38  1  0
  9 39  1  0
  9 40  1  0
 10 41  1  0
 14 42  1  0
 14 43  1  0
 14 44  1  0
 15 45  1  0
 15 46  1  0
 17 47  1  0
 18 48  1  0
 19 49  1  0
 20 50  1  0
 21 51  1  0
 22 52  1  0
 22 53  1  0
 24 54  1  0
 24 55  1  0
 25 56  1  0
 26 57  1  0
 27 58  1  0
 27 59  1  0
 29 60  1  0
 29 61  1  0
 30 62  1  0
 30 63  1  0
 30 64  1  0
M  END
>  <Energy>  (231) 
108.00226718026022

>  <compound_id>  (231) 
270

>  <target_id>  (231) 
1

>  <reference_id>  (231) 
56

>  <inspiration_ids>  (231) 
[201, 56]

>  <energy_score>  (231) 
33.0947521193431

>  <distance_score>  (231) 
2.433799115246506

>  <path>  (231) 
/opt/xchem-fragalysis-2/maxwin/BulkDock/SCRATCH/505737/C270-P56/C270-P56.minimised.mol

>  <scratch_subdir>  (231) 
/opt/xchem-fragalysis-2/maxwin/BulkDock/SCRATCH/505737/C270-P56

>  <fragmenstein_runtime>  (231) 
7.431459188461304

>  <fragmenstein_outcome>  (231) 
too moved

>  <fragmenstein_mode>  (231) 
expansion

>  <fragmenstein_error>  (231) 


$$$$
C270-P201
     RDKit          2D

  0  0  0  0  0  0  0  0  0  0999 V2000
M  END
>  <compound_id>  (232) 
270

>  <target_id>  (232) 
1

>  <reference_id>  (232) 
201

>  <inspiration_ids>  (232) 
[201, 59]

>  <energy_score>  (232) 
nan

>  <distance_score>  (232) 
nan

>  <path>  (232) 
/opt/xchem-fragalysis-2/maxwin/BulkDock/SCRATCH/505737/C270-P201/C270-P201.minimised.mol

>  <scratch_subdir>  (232) 
/opt/xchem-fragalysis-2/maxwin/BulkDock/SCRATCH/505737/C270-P201

>  <fragmenstein_runtime>  (232) 
0.473250150680542

>  <fragmenstein_outcome>  (232) 
too distant

>  <fragmenstein_mode>  (232) 
expansion

>  <fragmenstein_error>  (232) 
DistanceError: hit1

$$$$
C304-P201
     RDKit          3D

 61 63  0  0  0  0  0  0  0  0999 V2000
    3.4394   -1.5720   28.8692 C   0  0  0  0  0  0  0  0  0  0  0  0
    3.2881   -1.1976   30.3310 C   0  0  0  0  0  0  0  0  0  0  0  0
    3.4716   -2.3777   31.1253 O   0  0  0  0  0  0  0  0  0  0  0  0
    3.3197   -2.1552   32.4568 C   0  0  0  0  0  0  0  0  0  0  0  0
    3.0963   -1.0833   32.9941 O   0  0  0  0  0  0  0  0  0  0  0  0
    3.4639   -3.4489   33.1621 C   0  0  0  0  0  0  0  0  0  0  0  0
    3.2581   -3.5166   34.4867 C   0  0  0  0  0  0  0  0  0  0  0  0
    3.3479   -4.7288   35.3880 C   0  0  0  0  0  0  0  0  0  0  0  0
    3.7067   -6.0482   34.6936 C   0  0  0  0  0  0  0  0  0  0  0  0
    3.7169   -7.2297   35.6620 C   0  0  0  0  0  0  0  0  0  0  0  0
    2.5599   -7.2298   36.6627 C   0  0  0  0  0  0  0  0  0  0  0  0
    1.4275   -6.2306   36.3039 C   0  0  0  0  0  0  0  0  0  0  0  0
    2.0914   -4.8332   36.2844 C   0  0  0  0  0  0  0  0  0  0  0  0
    0.4208   -6.2715   37.3646 N   0  0  0  0  0  0  0  0  0  0  0  0
   -0.4638   -7.3560   37.0123 N   0  0  0  0  0  0  0  0  0  0  0  0
   -0.2897   -7.6199   35.5906 C   0  0  0  0  0  0  0  0  0  0  0  0
    0.7266   -6.6851   35.0934 N   0  0  0  0  0  0  0  0  0  0  0  0
    0.0292   -5.6268   34.3432 C   0  0  0  0  0  0  0  0  0  0  0  0
   -0.2482   -6.1055   32.8972 C   0  0  0  0  0  0  0  0  0  0  0  0
   -1.1177   -6.7810   32.5618 O   0  0  0  0  0  0  0  0  0  0  0  0
    0.9490   -5.3421   32.0712 N   0  0  0  0  0  0  0  0  0  0  0  0
    1.5919   -5.3178   30.2328 C   0  0  0  0  0  0  0  0  0  0  0  0
    0.9788   -5.3173   30.7469 C   0  0  0  0  0  0  0  0  0  0  0  0
    0.0457   -3.7447   30.6170 C   0  0  0  0  0  0  0  0  0  0  0  0
   -0.1335   -2.8943   31.7242 C   0  0  0  0  0  0  0  0  0  0  0  0
   -0.8095   -1.6892   31.5621 C   0  0  0  0  0  0  0  0  0  0  0  0
   -1.2903   -1.3203   30.3082 C   0  0  0  0  0  0  0  0  0  0  0  0
   -1.0944   -2.1493   29.2057 C   0  0  0  0  0  0  0  0  0  0  0  0
   -0.4247   -3.3601   29.3464 C   0  0  0  0  0  0  0  0  0  0  0  0
    3.3341   -0.6916   28.2292 H   0  0  0  0  0  0  0  0  0  0  0  0
    2.6842   -2.3083   28.5771 H   0  0  0  0  0  0  0  0  0  0  0  0
    4.4177   -2.0284   28.6866 H   0  0  0  0  0  0  0  0  0  0  0  0
    4.0466   -0.4537   30.5997 H   0  0  0  0  0  0  0  0  0  0  0  0
    2.2883   -0.7834   30.5031 H   0  0  0  0  0  0  0  0  0  0  0  0
    3.7186   -4.3111   32.5632 H   0  0  0  0  0  0  0  0  0  0  0  0
    3.0150   -2.5886   35.0102 H   0  0  0  0  0  0  0  0  0  0  0  0
    4.1869   -4.5078   36.0654 H   0  0  0  0  0  0  0  0  0  0  0  0
    3.0113   -6.2581   33.8738 H   0  0  0  0  0  0  0  0  0  0  0  0
    4.6978   -5.9679   34.2289 H   0  0  0  0  0  0  0  0  0  0  0  0
    4.6624   -7.2350   36.2188 H   0  0  0  0  0  0  0  0  0  0  0  0
    3.7025   -8.1649   35.0925 H   0  0  0  0  0  0  0  0  0  0  0  0
    2.9660   -6.9715   37.6519 H   0  0  0  0  0  0  0  0  0  0  0  0
    2.1897   -8.2557   36.7733 H   0  0  0  0  0  0  0  0  0  0  0  0
    1.3607   -4.0429   36.0685 H   0  0  0  0  0  0  0  0  0  0  0  0
    2.4180   -4.5967   37.3101 H   0  0  0  0  0  0  0  0  0  0  0  0
   -0.1107   -5.3983   37.3372 H   0  0  0  0  0  0  0  0  0  0  0  0
   -0.2148   -8.2272   37.5008 H   0  0  0  0  0  0  0  0  0  0  0  0
    0.0823   -8.6296   35.4588 H   0  0  0  0  0  0  0  0  0  0  0  0
   -1.2558   -7.5764   35.0753 H   0  0  0  0  0  0  0  0  0  0  0  0
    0.6333   -4.7239   34.2639 H   0  0  0  0  0  0  0  0  0  0  0  0
   -0.9104   -5.3115   34.8079 H   0  0  0  0  0  0  0  0  0  0  0  0
    1.4406   -6.1335   29.2759 H   0  0  0  0  0  0  0  0  0  0  0  0
    2.7087   -5.7786   30.4724 H   0  0  0  0  0  0  0  0  0  0  0  0
    2.1492   -4.2968   29.8511 H   0  0  0  0  0  0  0  0  0  0  0  0
    0.5450   -6.5598   30.8124 H   0  0  0  0  0  0  0  0  0  0  0  0
   -0.2132   -5.5242   30.3872 H   0  0  0  0  0  0  0  0  0  0  0  0
    0.2545   -3.1310   32.7076 H   0  0  0  0  0  0  0  0  0  0  0  0
   -0.9508   -1.0283   32.4139 H   0  0  0  0  0  0  0  0  0  0  0  0
   -1.8159   -0.3764   30.1840 H   0  0  0  0  0  0  0  0  0  0  0  0
   -1.4783   -1.8422   28.2353 H   0  0  0  0  0  0  0  0  0  0  0  0
   -0.2878   -3.9841   28.4733 H   0  0  0  0  0  0  0  0  0  0  0  0
  1  2  1  0
  2  3  1  0
  3  4  1  0
  4  5  2  0
  4  6  1  0
  6  7  2  3
  7  8  1  0
  8  9  1  0
  9 10  1  0
 10 11  1  0
 11 12  1  0
 12 13  1  0
 12 14  1  0
 14 15  1  0
 15 16  1  0
 16 17  1  0
 17 18  1  0
 18 19  1  0
 19 20  2  0
 19 21  1  0
 21 22  1  0
 21 23  1  0
 23 24  1  0
 24 25  2  0
 25 26  1  0
 26 27  2  0
 27 28  1  0
 28 29  2  0
 13  8  1  0
 29 24  1  0
 17 12  1  0
  1 30  1  0
  1 31  1  0
  1 32  1  0
  2 33  1  0
  2 34  1  0
  6 35  1  0
  7 36  1  0
  8 37  1  0
  9 38  1  0
  9 39  1  0
 10 40  1  0
 10 41  1  0
 11 42  1  0
 11 43  1  0
 13 44  1  0
 13 45  1  0
 14 46  1  0
 15 47  1  0
 16 48  1  0
 16 49  1  0
 18 50  1  0
 18 51  1  0
 22 52  1  0
 22 53  1  0
 22 54  1  0
 23 55  1  0
 23 56  1  0
 25 57  1  0
 26 58  1  0
 27 59  1  0
 28 60  1  0
 29 61  1  0
M  END
>  <Energy>  (233) 
807.80780126093896

>  <compound_id>  (233) 
304

>  <target_id>  (233) 
1

>  <reference_id>  (233) 
201

>  <inspiration_ids>  (233) 
[201, 78]

>  <energy_score>  (233) 
694.9395072088307

>  <distance_score>  (233) 
3.818606235151269

>  <path>  (233) 
/opt/xchem-fragalysis-2/maxwin/BulkDock/SCRATCH/505737/C304-P201/C304-P201.minimised.mol

>  <scratch_subdir>  (233) 
/opt/xchem-fragalysis-2/maxwin/BulkDock/SCRATCH/505737/C304-P201

>  <fragmenstein_runtime>  (233) 
12.809069156646729

>  <fragmenstein_outcome>  (233) 
too moved

>  <fragmenstein_mode>  (233) 
expansion

>  <fragmenstein_error>  (233) 


$$$$
C304-P78
     RDKit          3D

 61 63  0  0  0  0  0  0  0  0999 V2000
    3.6342   -5.3664   27.3972 C   0  0  0  0  0  0  0  0  0  0  0  0
    3.2267   -4.2027   28.2807 C   0  0  0  0  0  0  0  0  0  0  0  0
    3.6040   -4.5140   29.6267 O   0  0  0  0  0  0  0  0  0  0  0  0
    3.2313   -3.5653   30.5269 C   0  0  0  0  0  0  0  0  0  0  0  0
    2.6115   -2.5439   30.2869 O   0  0  0  0  0  0  0  0  0  0  0  0
    3.7086   -3.9905   31.8586 C   0  0  0  0  0  0  0  0  0  0  0  0
    3.2443   -3.4175   32.9804 C   0  0  0  0  0  0  0  0  0  0  0  0
    3.7048   -3.6871   34.4025 C   0  0  0  0  0  0  0  0  0  0  0  0
    4.7270   -4.8241   34.5382 C   0  0  0  0  0  0  0  0  0  0  0  0
    5.2384   -5.0115   35.9666 C   0  0  0  0  0  0  0  0  0  0  0  0
    4.4024   -4.2989   37.0256 C   0  0  0  0  0  0  0  0  0  0  0  0
    2.8726   -4.3030   36.7861 C   0  0  0  0  0  0  0  0  0  0  0  0
    2.4982   -3.9589   35.3151 C   0  0  0  0  0  0  0  0  0  0  0  0
    2.2727   -3.2673   37.6676 N   0  0  0  0  0  0  0  0  0  0  0  0
    1.3643   -3.9560   38.5966 N   0  0  0  0  0  0  0  0  0  0  0  0
    1.7633   -5.3547   38.5462 C   0  0  0  0  0  0  0  0  0  0  0  0
    2.1684   -5.5085   37.1792 N   0  0  0  0  0  0  0  0  0  0  0  0
    2.6992   -6.8164   36.8376 C   0  0  0  0  0  0  0  0  0  0  0  0
    1.5381   -7.7929   36.5828 C   0  0  0  0  0  0  0  0  0  0  0  0
    1.3866   -8.8064   37.1068 O   0  0  0  0  0  0  0  0  0  0  0  0
    0.6883   -7.0039   35.4193 N   0  0  0  0  0  0  0  0  0  0  0  0
   -0.4653   -7.4426   34.9888 C   0  0  0  0  0  0  0  0  0  0  0  0
   -0.8400   -7.4146   34.2555 C   0  0  0  0  0  0  0  0  0  0  0  0
   -0.5153   -6.3176   32.9500 C   0  0  0  0  0  0  0  0  0  0  0  0
   -0.7374   -4.9483   33.1562 C   0  0  0  0  0  0  0  0  0  0  0  0
   -0.4978   -4.0545   32.1176 C   0  0  0  0  0  0  0  0  0  0  0  0
   -0.0057   -4.5205   30.9008 C   0  0  0  0  0  0  0  0  0  0  0  0
    0.2668   -5.8785   30.7258 C   0  0  0  0  0  0  0  0  0  0  0  0
   -0.0062   -6.7933   31.7385 C   0  0  0  0  0  0  0  0  0  0  0  0
    3.3603   -5.1806   26.3550 H   0  0  0  0  0  0  0  0  0  0  0  0
    3.1526   -6.2916   27.7310 H   0  0  0  0  0  0  0  0  0  0  0  0
    4.7149   -5.5332   27.4542 H   0  0  0  0  0  0  0  0  0  0  0  0
    3.7402   -3.2913   27.9549 H   0  0  0  0  0  0  0  0  0  0  0  0
    2.1423   -4.0581   28.2187 H   0  0  0  0  0  0  0  0  0  0  0  0
    4.4704   -4.7554   31.8676 H   0  0  0  0  0  0  0  0  0  0  0  0
    2.4894   -2.6343   32.8852 H   0  0  0  0  0  0  0  0  0  0  0  0
    4.1833   -2.7572   34.7402 H   0  0  0  0  0  0  0  0  0  0  0  0
    4.2829   -5.7645   34.1884 H   0  0  0  0  0  0  0  0  0  0  0  0
    5.5942   -4.6412   33.8912 H   0  0  0  0  0  0  0  0  0  0  0  0
    6.2651   -4.6277   36.0304 H   0  0  0  0  0  0  0  0  0  0  0  0
    5.3245   -6.0801   36.1913 H   0  0  0  0  0  0  0  0  0  0  0  0
    4.7548   -3.2568   37.0520 H   0  0  0  0  0  0  0  0  0  0  0  0
    4.6475   -4.7066   38.0152 H   0  0  0  0  0  0  0  0  0  0  0  0
    1.9120   -4.7699   34.8665 H   0  0  0  0  0  0  0  0  0  0  0  0
    1.8231   -3.0911   35.2836 H   0  0  0  0  0  0  0  0  0  0  0  0
    3.0054   -2.7995   38.2042 H   0  0  0  0  0  0  0  0  0  0  0  0
    0.4238   -3.9213   38.1934 H   0  0  0  0  0  0  0  0  0  0  0  0
    2.5822   -5.5375   39.2528 H   0  0  0  0  0  0  0  0  0  0  0  0
    0.9230   -6.0028   38.8164 H   0  0  0  0  0  0  0  0  0  0  0  0
    3.3616   -7.2188   37.6116 H   0  0  0  0  0  0  0  0  0  0  0  0
    3.2507   -6.8089   35.8950 H   0  0  0  0  0  0  0  0  0  0  0  0
   -1.1193   -8.0235   35.9263 H   0  0  0  0  0  0  0  0  0  0  0  0
    0.0109   -8.5910   35.2076 H   0  0  0  0  0  0  0  0  0  0  0  0
   -0.8815   -6.5798   35.8134 H   0  0  0  0  0  0  0  0  0  0  0  0
   -0.7974   -8.4098   33.5415 H   0  0  0  0  0  0  0  0  0  0  0  0
   -2.0327   -7.0335   34.3747 H   0  0  0  0  0  0  0  0  0  0  0  0
   -1.0881   -4.5752   34.1158 H   0  0  0  0  0  0  0  0  0  0  0  0
   -0.6726   -2.9905   32.2620 H   0  0  0  0  0  0  0  0  0  0  0  0
    0.1899   -3.8127   30.0969 H   0  0  0  0  0  0  0  0  0  0  0  0
    0.7085   -6.2114   29.7971 H   0  0  0  0  0  0  0  0  0  0  0  0
    0.1905   -7.8470   31.5822 H   0  0  0  0  0  0  0  0  0  0  0  0
  1  2  1  0
  2  3  1  0
  3  4  1  0
  4  5  2  0
  4  6  1  0
  6  7  2  3
  7  8  1  0
  8  9  1  0
  9 10  1  0
 10 11  1  0
 11 12  1  0
 12 13  1  0
 12 14  1  0
 14 15  1  0
 15 16  1  0
 16 17  1  0
 17 18  1  0
 18 19  1  0
 19 20  2  0
 19 21  1  0
 21 22  1  0
 21 23  1  0
 23 24  1  0
 24 25  2  0
 25 26  1  0
 26 27  2  0
 27 28  1  0
 28 29  2  0
 13  8  1  0
 29 24  1  0
 17 12  1  0
  1 30  1  0
  1 31  1  0
  1 32  1  0
  2 33  1  0
  2 34  1  0
  6 35  1  0
  7 36  1  0
  8 37  1  0
  9 38  1  0
  9 39  1  0
 10 40  1  0
 10 41  1  0
 11 42  1  0
 11 43  1  0
 13 44  1  0
 13 45  1  0
 14 46  1  0
 15 47  1  0
 16 48  1  0
 16 49  1  0
 18 50  1  0
 18 51  1  0
 22 52  1  0
 22 53  1  0
 22 54  1  0
 23 55  1  0
 23 56  1  0
 25 57  1  0
 26 58  1  0
 27 59  1  0
 28 60  1  0
 29 61  1  0
M  END
>  <Energy>  (234) 
793.53402930205641

>  <compound_id>  (234) 
304

>  <target_id>  (234) 
1

>  <reference_id>  (234) 
78

>  <inspiration_ids>  (234) 
[201, 78]

>  <energy_score>  (234) 
680.6657352499417

>  <distance_score>  (234) 
3.188062767408932

>  <path>  (234) 
/opt/xchem-fragalysis-2/maxwin/BulkDock/SCRATCH/505737/C304-P78/C304-P78.minimised.mol

>  <scratch_subdir>  (234) 
/opt/xchem-fragalysis-2/maxwin/BulkDock/SCRATCH/505737/C304-P78

>  <fragmenstein_runtime>  (234) 
12.323853492736816

>  <fragmenstein_outcome>  (234) 
too moved

>  <fragmenstein_mode>  (234) 
expansion

>  <fragmenstein_error>  (234) 


$$$$
C304-P201
     RDKit          3D

 61 63  0  0  0  0  0  0  0  0999 V2000
    5.6816   -4.4066   27.5778 C   0  0  0  0  0  0  0  0  0  0  0  0
    4.4937   -4.6807   26.6726 C   0  0  0  0  0  0  0  0  0  0  0  0
    3.3285   -4.8499   27.4900 O   0  0  0  0  0  0  0  0  0  0  0  0
    3.0512   -6.1114   27.8703 C   0  0  0  0  0  0  0  0  0  0  0  0
    3.5714   -7.1507   27.4871 O   0  0  0  0  0  0  0  0  0  0  0  0
    2.0393   -6.1603   28.9333 C   0  0  0  0  0  0  0  0  0  0  0  0
    1.6730   -5.1327   29.7106 C   0  0  0  0  0  0  0  0  0  0  0  0
    0.8407   -5.2715   30.9678 C   0  0  0  0  0  0  0  0  0  0  0  0
   -0.2747   -6.3182   30.8965 C   0  0  0  0  0  0  0  0  0  0  0  0
   -1.0054   -6.4079   32.2311 C   0  0  0  0  0  0  0  0  0  0  0  0
   -0.0468   -6.7755   33.3596 C   0  0  0  0  0  0  0  0  0  0  0  0
    1.1188   -5.7687   33.5056 C   0  0  0  0  0  0  0  0  0  0  0  0
    1.7961   -5.6342   32.1117 C   0  0  0  0  0  0  0  0  0  0  0  0
    2.1260   -6.3058   34.4290 N   0  0  0  0  0  0  0  0  0  0  0  0
    2.9201   -5.1389   34.8416 N   0  0  0  0  0  0  0  0  0  0  0  0
    2.1359   -3.9519   34.4831 C   0  0  0  0  0  0  0  0  0  0  0  0
    0.8348   -4.4370   34.0301 N   0  0  0  0  0  0  0  0  0  0  0  0
   -0.1705   -4.3455   35.1166 C   0  0  0  0  0  0  0  0  0  0  0  0
    0.3246   -4.5782   36.5663 C   0  0  0  0  0  0  0  0  0  0  0  0
    0.5782   -3.7201   37.2950 O   0  0  0  0  0  0  0  0  0  0  0  0
    0.2831   -6.2007   36.7422 N   0  0  0  0  0  0  0  0  0  0  0  0
    0.4371   -6.7776   37.9069 C   0  0  0  0  0  0  0  0  0  0  0  0
    0.7787   -7.4887   38.1490 C   0  0  0  0  0  0  0  0  0  0  0  0
    2.4370   -7.6879   38.4648 C   0  0  0  0  0  0  0  0  0  0  0  0
    3.3397   -7.9251   37.4226 C   0  0  0  0  0  0  0  0  0  0  0  0
    4.6904   -8.0933   37.7198 C   0  0  0  0  0  0  0  0  0  0  0  0
    5.1311   -8.0269   39.0436 C   0  0  0  0  0  0  0  0  0  0  0  0
    4.2237   -7.7909   40.0789 C   0  0  0  0  0  0  0  0  0  0  0  0
    2.8702   -7.6202   39.7964 C   0  0  0  0  0  0  0  0  0  0  0  0
    5.8692   -5.2564   28.2423 H   0  0  0  0  0  0  0  0  0  0  0  0
    5.4882   -3.5383   28.2162 H   0  0  0  0  0  0  0  0  0  0  0  0
    6.5826   -4.2176   26.9875 H   0  0  0  0  0  0  0  0  0  0  0  0
    4.3128   -3.8187   26.0226 H   0  0  0  0  0  0  0  0  0  0  0  0
    4.6723   -5.5484   26.0281 H   0  0  0  0  0  0  0  0  0  0  0  0
    1.6835   -7.1629   29.1311 H   0  0  0  0  0  0  0  0  0  0  0  0
    2.0847   -4.1395   29.5312 H   0  0  0  0  0  0  0  0  0  0  0  0
    0.3839   -4.2929   31.1651 H   0  0  0  0  0  0  0  0  0  0  0  0
   -0.9751   -6.0712   30.0964 H   0  0  0  0  0  0  0  0  0  0  0  0
    0.1245   -7.3125   30.6609 H   0  0  0  0  0  0  0  0  0  0  0  0
   -1.7833   -7.1746   32.1582 H   0  0  0  0  0  0  0  0  0  0  0  0
   -1.4908   -5.4527   32.4516 H   0  0  0  0  0  0  0  0  0  0  0  0
   -0.6076   -6.9131   34.2889 H   0  0  0  0  0  0  0  0  0  0  0  0
    0.3645   -7.7670   33.1358 H   0  0  0  0  0  0  0  0  0  0  0  0
    2.6329   -4.9235   32.1167 H   0  0  0  0  0  0  0  0  0  0  0  0
    2.2601   -6.5939   31.8843 H   0  0  0  0  0  0  0  0  0  0  0  0
    1.5820   -6.5971   35.2566 H   0  0  0  0  0  0  0  0  0  0  0  0
    3.8119   -5.0982   34.3456 H   0  0  0  0  0  0  0  0  0  0  0  0
    2.6302   -3.4221   33.6593 H   0  0  0  0  0  0  0  0  0  0  0  0
    2.1027   -3.2228   35.2993 H   0  0  0  0  0  0  0  0  0  0  0  0
   -0.5658   -3.3209   35.0996 H   0  0  0  0  0  0  0  0  0  0  0  0
   -1.0374   -4.9774   34.9343 H   0  0  0  0  0  0  0  0  0  0  0  0
   -0.1041   -6.0592   38.8206 H   0  0  0  0  0  0  0  0  0  0  0  0
    1.1807   -5.7951   38.2112 H   0  0  0  0  0  0  0  0  0  0  0  0
   -0.8180   -6.8441   37.8151 H   0  0  0  0  0  0  0  0  0  0  0  0
    0.7297   -8.5066   37.4814 H   0  0  0  0  0  0  0  0  0  0  0  0
    0.1090   -8.0057   39.0950 H   0  0  0  0  0  0  0  0  0  0  0  0
    3.0044   -7.9788   36.3935 H   0  0  0  0  0  0  0  0  0  0  0  0
    5.4043   -8.2696   36.9195 H   0  0  0  0  0  0  0  0  0  0  0  0
    6.1873   -8.1531   39.2685 H   0  0  0  0  0  0  0  0  0  0  0  0
    4.5770   -7.7342   41.1054 H   0  0  0  0  0  0  0  0  0  0  0  0
    2.1686   -7.4319   40.6040 H   0  0  0  0  0  0  0  0  0  0  0  0
  1  2  1  0
  2  3  1  0
  3  4  1  0
  4  5  2  0
  4  6  1  0
  6  7  2  3
  7  8  1  0
  8  9  1  0
  9 10  1  0
 10 11  1  0
 11 12  1  0
 12 13  1  0
 12 14  1  0
 14 15  1  0
 15 16  1  0
 16 17  1  0
 17 18  1  0
 18 19  1  0
 19 20  2  0
 19 21  1  0
 21 22  1  0
 21 23  1  0
 23 24  1  0
 24 25  2  0
 25 26  1  0
 26 27  2  0
 27 28  1  0
 28 29  2  0
 13  8  1  0
 29 24  1  0
 17 12  1  0
  1 30  1  0
  1 31  1  0
  1 32  1  0
  2 33  1  0
  2 34  1  0
  6 35  1  0
  7 36  1  0
  8 37  1  0
  9 38  1  0
  9 39  1  0
 10 40  1  0
 10 41  1  0
 11 42  1  0
 11 43  1  0
 13 44  1  0
 13 45  1  0
 14 46  1  0
 15 47  1  0
 16 48  1  0
 16 49  1  0
 18 50  1  0
 18 51  1  0
 22 52  1  0
 22 53  1  0
 22 54  1  0
 23 55  1  0
 23 56  1  0
 25 57  1  0
 26 58  1  0
 27 59  1  0
 28 60  1  0
 29 61  1  0
M  END
>  <Energy>  (235) 
797.44552116527166

>  <compound_id>  (235) 
304

>  <target_id>  (235) 
1

>  <reference_id>  (235) 
201

>  <inspiration_ids>  (235) 
[201, 105]

>  <energy_score>  (235) 
663.4134301132398

>  <distance_score>  (235) 
3.0269332920665244

>  <path>  (235) 
/opt/xchem-fragalysis-2/maxwin/BulkDock/SCRATCH/505737/C304-P201/C304-P201.minimised.mol

>  <scratch_subdir>  (235) 
/opt/xchem-fragalysis-2/maxwin/BulkDock/SCRATCH/505737/C304-P201

>  <fragmenstein_runtime>  (235) 
11.550836324691772

>  <fragmenstein_outcome>  (235) 
too moved

>  <fragmenstein_mode>  (235) 
expansion

>  <fragmenstein_error>  (235) 


$$$$
C304-P105
     RDKit          3D

 61 63  0  0  0  0  0  0  0  0999 V2000
    5.1127   -3.6089   30.5775 C   0  0  0  0  0  0  0  0  0  0  0  0
    4.3341   -3.9010   29.3109 C   0  0  0  0  0  0  0  0  0  0  0  0
    3.0350   -3.3169   29.4463 O   0  0  0  0  0  0  0  0  0  0  0  0
    2.1897   -3.6011   28.4294 C   0  0  0  0  0  0  0  0  0  0  0  0
    2.4489   -4.2819   27.4459 O   0  0  0  0  0  0  0  0  0  0  0  0
    0.8922   -2.9229   28.6065 C   0  0  0  0  0  0  0  0  0  0  0  0
    0.1563   -2.7974   29.7196 C   0  0  0  0  0  0  0  0  0  0  0  0
    0.4658   -3.2775   31.1099 C   0  0  0  0  0  0  0  0  0  0  0  0
    0.3854   -2.1093   32.0975 C   0  0  0  0  0  0  0  0  0  0  0  0
    0.6520   -2.5492   33.5342 C   0  0  0  0  0  0  0  0  0  0  0  0
   -0.1372   -3.7939   33.9531 C   0  0  0  0  0  0  0  0  0  0  0  0
   -0.1788   -4.9392   32.9203 C   0  0  0  0  0  0  0  0  0  0  0  0
   -0.5360   -4.3557   31.5294 C   0  0  0  0  0  0  0  0  0  0  0  0
   -1.2271   -5.8950   33.3169 N   0  0  0  0  0  0  0  0  0  0  0  0
   -0.9210   -7.1147   32.6035 N   0  0  0  0  0  0  0  0  0  0  0  0
    0.5318   -7.1455   32.5507 C   0  0  0  0  0  0  0  0  0  0  0  0
    0.9717   -5.7903   32.7423 N   0  0  0  0  0  0  0  0  0  0  0  0
    2.2788   -5.5548   33.3149 C   0  0  0  0  0  0  0  0  0  0  0  0
    2.6310   -6.4041   34.5504 C   0  0  0  0  0  0  0  0  0  0  0  0
    2.9404   -7.5173   34.5075 O   0  0  0  0  0  0  0  0  0  0  0  0
    2.5490   -5.3254   35.7755 N   0  0  0  0  0  0  0  0  0  0  0  0
    3.0682   -5.2990   37.6634 C   0  0  0  0  0  0  0  0  0  0  0  0
    2.7337   -5.6787   37.0489 C   0  0  0  0  0  0  0  0  0  0  0  0
    1.9658   -7.3031   37.5036 C   0  0  0  0  0  0  0  0  0  0  0  0
    2.5577   -8.0402   38.5514 C   0  0  0  0  0  0  0  0  0  0  0  0
    2.0194   -9.2771   38.8984 C   0  0  0  0  0  0  0  0  0  0  0  0
    0.9129   -9.7750   38.2105 C   0  0  0  0  0  0  0  0  0  0  0  0
    0.3344   -9.0377   37.1747 C   0  0  0  0  0  0  0  0  0  0  0  0
    0.8457   -7.7940   36.8144 C   0  0  0  0  0  0  0  0  0  0  0  0
    4.5955   -4.0177   31.4517 H   0  0  0  0  0  0  0  0  0  0  0  0
    5.1993   -2.5290   30.7364 H   0  0  0  0  0  0  0  0  0  0  0  0
    6.1162   -4.0403   30.5272 H   0  0  0  0  0  0  0  0  0  0  0  0
    4.8455   -3.4614   28.4475 H   0  0  0  0  0  0  0  0  0  0  0  0
    4.2467   -4.9853   29.1763 H   0  0  0  0  0  0  0  0  0  0  0  0
    0.4734   -2.5312   27.6879 H   0  0  0  0  0  0  0  0  0  0  0  0
   -0.8044   -2.2917   29.6025 H   0  0  0  0  0  0  0  0  0  0  0  0
    1.4737   -3.6963   31.1524 H   0  0  0  0  0  0  0  0  0  0  0  0
    1.1043   -1.3273   31.8222 H   0  0  0  0  0  0  0  0  0  0  0  0
   -0.6093   -1.6450   32.0524 H   0  0  0  0  0  0  0  0  0  0  0  0
    0.3969   -1.7248   34.2119 H   0  0  0  0  0  0  0  0  0  0  0  0
    1.7256   -2.6995   33.6653 H   0  0  0  0  0  0  0  0  0  0  0  0
   -1.1666   -3.4564   34.1388 H   0  0  0  0  0  0  0  0  0  0  0  0
    0.2269   -4.1507   34.9232 H   0  0  0  0  0  0  0  0  0  0  0  0
   -0.5654   -5.1415   30.7614 H   0  0  0  0  0  0  0  0  0  0  0  0
   -1.5438   -3.9193   31.5567 H   0  0  0  0  0  0  0  0  0  0  0  0
   -1.1390   -6.0202   34.3280 H   0  0  0  0  0  0  0  0  0  0  0  0
   -1.2675   -7.9534   33.0764 H   0  0  0  0  0  0  0  0  0  0  0  0
    0.8514   -7.5258   31.5796 H   0  0  0  0  0  0  0  0  0  0  0  0
    0.8639   -7.7975   33.3527 H   0  0  0  0  0  0  0  0  0  0  0  0
    3.0238   -5.8122   32.5581 H   0  0  0  0  0  0  0  0  0  0  0  0
    2.4871   -4.5064   33.5114 H   0  0  0  0  0  0  0  0  0  0  0  0
    3.5350   -4.1595   37.6400 H   0  0  0  0  0  0  0  0  0  0  0  0
    2.3113   -4.9408   38.5954 H   0  0  0  0  0  0  0  0  0  0  0  0
    4.1735   -5.7208   38.0694 H   0  0  0  0  0  0  0  0  0  0  0  0
    1.4771   -5.4927   37.0076 H   0  0  0  0  0  0  0  0  0  0  0  0
    3.4850   -6.5671   36.5606 H   0  0  0  0  0  0  0  0  0  0  0  0
    3.4297   -7.6780   39.0860 H   0  0  0  0  0  0  0  0  0  0  0  0
    2.4645   -9.8632   39.6987 H   0  0  0  0  0  0  0  0  0  0  0  0
    0.4973  -10.7455   38.4754 H   0  0  0  0  0  0  0  0  0  0  0  0
   -0.5224   -9.4484   36.6495 H   0  0  0  0  0  0  0  0  0  0  0  0
    0.3852   -7.2367   36.0072 H   0  0  0  0  0  0  0  0  0  0  0  0
  1  2  1  0
  2  3  1  0
  3  4  1  0
  4  5  2  0
  4  6  1  0
  6  7  2  3
  7  8  1  0
  8  9  1  0
  9 10  1  0
 10 11  1  0
 11 12  1  0
 12 13  1  0
 12 14  1  0
 14 15  1  0
 15 16  1  0
 16 17  1  0
 17 18  1  0
 18 19  1  0
 19 20  2  0
 19 21  1  0
 21 22  1  0
 21 23  1  0
 23 24  1  0
 24 25  2  0
 25 26  1  0
 26 27  2  0
 27 28  1  0
 28 29  2  0
 13  8  1  0
 29 24  1  0
 17 12  1  0
  1 30  1  0
  1 31  1  0
  1 32  1  0
  2 33  1  0
  2 34  1  0
  6 35  1  0
  7 36  1  0
  8 37  1  0
  9 38  1  0
  9 39  1  0
 10 40  1  0
 10 41  1  0
 11 42  1  0
 11 43  1  0
 13 44  1  0
 13 45  1  0
 14 46  1  0
 15 47  1  0
 16 48  1  0
 16 49  1  0
 18 50  1  0
 18 51  1  0
 22 52  1  0
 22 53  1  0
 22 54  1  0
 23 55  1  0
 23 56  1  0
 25 57  1  0
 26 58  1  0
 27 59  1  0
 28 60  1  0
 29 61  1  0
M  END
>  <Energy>  (236) 
815.54975685280215

>  <compound_id>  (236) 
304

>  <target_id>  (236) 
1

>  <reference_id>  (236) 
105

>  <inspiration_ids>  (236) 
[201, 105]

>  <energy_score>  (236) 
681.5176658007706

>  <distance_score>  (236) 
2.786432575552368

>  <path>  (236) 
/opt/xchem-fragalysis-2/maxwin/BulkDock/SCRATCH/505737/C304-P105/C304-P105.minimised.mol

>  <scratch_subdir>  (236) 
/opt/xchem-fragalysis-2/maxwin/BulkDock/SCRATCH/505737/C304-P105

>  <fragmenstein_runtime>  (236) 
9.408827066421509

>  <fragmenstein_outcome>  (236) 
too moved

>  <fragmenstein_mode>  (236) 
expansion

>  <fragmenstein_error>  (236) 


$$$$
C273-P201
     RDKit          3D

 58 60  0  0  0  0  0  0  0  0999 V2000
    5.4076    4.7658   33.7143 C   0  0  0  0  0  0  0  0  0  0  0  0
    6.3670    3.7078   34.2264 C   0  0  0  0  0  0  0  0  0  0  0  0
    5.6740    2.4678   34.4293 O   0  0  0  0  0  0  0  0  0  0  0  0
    5.5854    1.6642   33.3402 C   0  0  0  0  0  0  0  0  0  0  0  0
    6.0264    1.8898   32.2261 O   0  0  0  0  0  0  0  0  0  0  0  0
    4.8451    0.4446   33.7375 C   0  0  0  0  0  0  0  0  0  0  0  0
    4.5854   -0.5183   32.8372 C   0  0  0  0  0  0  0  0  0  0  0  0
    3.8563   -1.8351   33.0408 C   0  0  0  0  0  0  0  0  0  0  0  0
    2.6174   -1.8907   32.1137 C   0  0  0  0  0  0  0  0  0  0  0  0
    1.6892   -3.1366   32.2668 C   0  0  0  0  0  0  0  0  0  0  0  0
    0.3360   -2.8087   31.5123 C   0  0  0  0  0  0  0  0  0  0  0  0
   -0.4757   -4.0319   31.0172 C   0  0  0  0  0  0  0  0  0  0  0  0
   -0.1539   -5.1998   31.9078 C   0  0  0  0  0  0  0  0  0  0  0  0
   -1.0026   -6.4515   31.9229 C   0  0  0  0  0  0  0  0  0  0  0  0
   -1.4982   -6.9600   30.9958 O   0  0  0  0  0  0  0  0  0  0  0  0
   -0.9446   -6.9070   33.4154 N   0  0  0  0  0  0  0  0  0  0  0  0
   -1.5539   -8.0072   34.0640 C   0  0  0  0  0  0  0  0  0  0  0  0
    1.3127   -5.6103   31.7303 C   0  0  0  0  0  0  0  0  0  0  0  0
    2.2425   -4.3993   31.5557 C   0  0  0  0  0  0  0  0  0  0  0  0
    1.4667   -3.3474   33.8071 C   0  0  0  0  0  0  0  0  0  0  0  0
    2.7280   -3.3950   34.6912 C   0  0  0  0  0  0  0  0  0  0  0  0
    3.4884   -2.0819   34.5060 C   0  0  0  0  0  0  0  0  0  0  0  0
    3.5425   -4.5814   34.4469 N   0  0  0  0  0  0  0  0  0  0  0  0
    4.2739   -4.7699   35.6865 C   0  0  0  0  0  0  0  0  0  0  0  0
    3.3512   -4.3711   36.7356 N   0  0  0  0  0  0  0  0  0  0  0  0
    2.3136   -3.5796   36.0859 N   0  0  0  0  0  0  0  0  0  0  0  0
    4.9940    4.4832   32.7411 H   0  0  0  0  0  0  0  0  0  0  0  0
    5.9127    5.7305   33.6122 H   0  0  0  0  0  0  0  0  0  0  0  0
    4.5610    4.8808   34.3990 H   0  0  0  0  0  0  0  0  0  0  0  0
    7.2219    3.5816   33.5521 H   0  0  0  0  0  0  0  0  0  0  0  0
    6.7670    4.0135   35.1987 H   0  0  0  0  0  0  0  0  0  0  0  0
    4.5381    0.3866   34.7734 H   0  0  0  0  0  0  0  0  0  0  0  0
    4.9431   -0.3670   31.8158 H   0  0  0  0  0  0  0  0  0  0  0  0
    4.5501   -2.6248   32.7232 H   0  0  0  0  0  0  0  0  0  0  0  0
    2.9443   -1.8122   31.0676 H   0  0  0  0  0  0  0  0  0  0  0  0
    2.0140   -0.9911   32.3071 H   0  0  0  0  0  0  0  0  0  0  0  0
   -0.3002   -2.2018   32.1697 H   0  0  0  0  0  0  0  0  0  0  0  0
    0.5393   -2.1803   30.6349 H   0  0  0  0  0  0  0  0  0  0  0  0
   -0.2387   -4.2565   29.9707 H   0  0  0  0  0  0  0  0  0  0  0  0
   -1.5370   -3.7743   31.0631 H   0  0  0  0  0  0  0  0  0  0  0  0
   -0.3637   -4.7639   32.8803 H   0  0  0  0  0  0  0  0  0  0  0  0
   -0.5040   -6.1865   33.9727 H   0  0  0  0  0  0  0  0  0  0  0  0
   -1.9612   -8.6718   33.3046 H   0  0  0  0  0  0  0  0  0  0  0  0
   -0.7736   -8.4547   34.6764 H   0  0  0  0  0  0  0  0  0  0  0  0
   -2.3389   -7.6486   34.7301 H   0  0  0  0  0  0  0  0  0  0  0  0
    1.4227   -6.2681   30.8594 H   0  0  0  0  0  0  0  0  0  0  0  0
    1.6397   -6.1996   32.5954 H   0  0  0  0  0  0  0  0  0  0  0  0
    2.3441   -4.1870   30.4822 H   0  0  0  0  0  0  0  0  0  0  0  0
    3.2524   -4.6535   31.8900 H   0  0  0  0  0  0  0  0  0  0  0  0
    0.9159   -4.2558   34.0426 H   0  0  0  0  0  0  0  0  0  0  0  0
    0.8253   -2.5276   34.1650 H   0  0  0  0  0  0  0  0  0  0  0  0
    2.8572   -1.2557   34.8658 H   0  0  0  0  0  0  0  0  0  0  0  0
    4.3948   -2.0585   35.1254 H   0  0  0  0  0  0  0  0  0  0  0  0
    2.8839   -5.3539   34.4095 H   0  0  0  0  0  0  0  0  0  0  0  0
    5.1768   -4.1500   35.7104 H   0  0  0  0  0  0  0  0  0  0  0  0
    4.5900   -5.8118   35.8040 H   0  0  0  0  0  0  0  0  0  0  0  0
    2.9355   -5.2119   37.1435 H   0  0  0  0  0  0  0  0  0  0  0  0
    2.2090   -2.6697   36.5420 H   0  0  0  0  0  0  0  0  0  0  0  0
  1  2  1  0
  2  3  1  0
  3  4  1  0
  4  5  2  0
  4  6  1  0
  6  7  2  3
  7  8  1  0
  8  9  1  0
  9 10  1  0
 10 11  1  0
 11 12  1  0
 12 13  1  0
 13 14  1  0
 14 15  2  0
 14 16  1  0
 16 17  1  0
 13 18  1  0
 18 19  1  0
 10 20  1  0
 20 21  1  0
 21 22  1  0
 21 23  1  0
 23 24  1  0
 24 25  1  0
 25 26  1  0
 22  8  1  0
 19 10  1  0
 26 21  1  0
  1 27  1  0
  1 28  1  0
  1 29  1  0
  2 30  1  0
  2 31  1  0
  6 32  1  0
  7 33  1  0
  8 34  1  0
  9 35  1  0
  9 36  1  0
 11 37  1  0
 11 38  1  0
 12 39  1  0
 12 40  1  0
 13 41  1  0
 16 42  1  0
 17 43  1  0
 17 44  1  0
 17 45  1  0
 18 46  1  0
 18 47  1  0
 19 48  1  0
 19 49  1  0
 20 50  1  0
 20 51  1  0
 22 52  1  0
 22 53  1  0
 23 54  1  0
 24 55  1  0
 24 56  1  0
 25 57  1  0
 26 58  1  0
M  END
>  <Energy>  (237) 
25.495653711245346

>  <compound_id>  (237) 
273

>  <target_id>  (237) 
1

>  <reference_id>  (237) 
201

>  <inspiration_ids>  (237) 
[201, 128]

>  <energy_score>  (237) 
-27.972354390197268

>  <distance_score>  (237) 
2.071492798255298

>  <path>  (237) 
/opt/xchem-fragalysis-2/maxwin/BulkDock/SCRATCH/505737/C273-P201/C273-P201.minimised.mol

>  <scratch_subdir>  (237) 
/opt/xchem-fragalysis-2/maxwin/BulkDock/SCRATCH/505737/C273-P201

>  <fragmenstein_runtime>  (237) 
4.048631429672241

>  <fragmenstein_outcome>  (237) 
too moved

>  <fragmenstein_mode>  (237) 
expansion

>  <fragmenstein_error>  (237) 


$$$$
C273-P128
     RDKit          3D

 58 60  0  0  0  0  0  0  0  0999 V2000
    2.2365    4.7379   34.2449 C   0  0  0  0  0  0  0  0  0  0  0  0
    3.3353    4.0185   35.0044 C   0  0  0  0  0  0  0  0  0  0  0  0
    3.1208    2.6005   34.9607 O   0  0  0  0  0  0  0  0  0  0  0  0
    3.6400    1.9649   33.8810 C   0  0  0  0  0  0  0  0  0  0  0  0
    4.2573    2.4716   32.9595 O   0  0  0  0  0  0  0  0  0  0  0  0
    3.3228    0.5242   34.0078 C   0  0  0  0  0  0  0  0  0  0  0  0
    3.6947   -0.3412   33.0502 C   0  0  0  0  0  0  0  0  0  0  0  0
    3.4609   -1.8374   33.0113 C   0  0  0  0  0  0  0  0  0  0  0  0
    2.5986   -2.2524   31.7579 C   0  0  0  0  0  0  0  0  0  0  0  0
    1.8208   -3.6175   31.9103 C   0  0  0  0  0  0  0  0  0  0  0  0
    0.3955   -3.2682   32.4234 C   0  0  0  0  0  0  0  0  0  0  0  0
   -0.6128   -4.4077   32.4583 C   0  0  0  0  0  0  0  0  0  0  0  0
    0.0074   -5.7336   32.0568 C   0  0  0  0  0  0  0  0  0  0  0  0
   -0.9466   -6.8820   32.3439 C   0  0  0  0  0  0  0  0  0  0  0  0
   -1.4717   -7.5565   31.5458 O   0  0  0  0  0  0  0  0  0  0  0  0
   -0.9913   -6.9398   33.9074 N   0  0  0  0  0  0  0  0  0  0  0  0
   -1.7549   -7.7668   34.7801 C   0  0  0  0  0  0  0  0  0  0  0  0
    0.6001   -5.5959   30.6583 C   0  0  0  0  0  0  0  0  0  0  0  0
    1.5886   -4.3882   30.5577 C   0  0  0  0  0  0  0  0  0  0  0  0
    2.7594   -4.4654   32.8184 C   0  0  0  0  0  0  0  0  0  0  0  0
    2.8565   -3.9748   34.2778 C   0  0  0  0  0  0  0  0  0  0  0  0
    2.9265   -2.4336   34.3272 C   0  0  0  0  0  0  0  0  0  0  0  0
    4.0496   -4.5259   34.9133 N   0  0  0  0  0  0  0  0  0  0  0  0
    3.6267   -5.7418   35.5621 C   0  0  0  0  0  0  0  0  0  0  0  0
    2.2877   -5.4489   36.0183 N   0  0  0  0  0  0  0  0  0  0  0  0
    1.7293   -4.5097   35.0633 N   0  0  0  0  0  0  0  0  0  0  0  0
    2.2435    4.4595   33.1863 H   0  0  0  0  0  0  0  0  0  0  0  0
    2.3577    5.8221   34.3216 H   0  0  0  0  0  0  0  0  0  0  0  0
    1.2528    4.4634   34.6399 H   0  0  0  0  0  0  0  0  0  0  0  0
    4.3275    4.2841   34.6215 H   0  0  0  0  0  0  0  0  0  0  0  0
    3.3081    4.3138   36.0585 H   0  0  0  0  0  0  0  0  0  0  0  0
    2.7845    0.2256   34.8979 H   0  0  0  0  0  0  0  0  0  0  0  0
    4.2318    0.0517   32.1842 H   0  0  0  0  0  0  0  0  0  0  0  0
    4.4621   -2.2685   32.8609 H   0  0  0  0  0  0  0  0  0  0  0  0
    1.9005   -1.4464   31.4973 H   0  0  0  0  0  0  0  0  0  0  0  0
    3.2831   -2.3306   30.9016 H   0  0  0  0  0  0  0  0  0  0  0  0
    0.4144   -2.7933   33.4055 H   0  0  0  0  0  0  0  0  0  0  0  0
   -0.0312   -2.4964   31.7658 H   0  0  0  0  0  0  0  0  0  0  0  0
   -1.4420   -4.1724   31.7786 H   0  0  0  0  0  0  0  0  0  0  0  0
   -1.0666   -4.4398   33.4542 H   0  0  0  0  0  0  0  0  0  0  0  0
    0.8261   -5.9811   32.7233 H   0  0  0  0  0  0  0  0  0  0  0  0
   -0.3500   -6.2523   34.2917 H   0  0  0  0  0  0  0  0  0  0  0  0
   -2.3655   -7.1124   35.3967 H   0  0  0  0  0  0  0  0  0  0  0  0
   -2.3891   -8.4297   34.1973 H   0  0  0  0  0  0  0  0  0  0  0  0
   -1.0630   -8.2991   35.4333 H   0  0  0  0  0  0  0  0  0  0  0  0
   -0.1998   -5.4622   29.9212 H   0  0  0  0  0  0  0  0  0  0  0  0
    1.1120   -6.5186   30.3734 H   0  0  0  0  0  0  0  0  0  0  0  0
    1.1932   -3.6854   29.8122 H   0  0  0  0  0  0  0  0  0  0  0  0
    2.5472   -4.7408   30.1571 H   0  0  0  0  0  0  0  0  0  0  0  0
    3.7613   -4.4169   32.3594 H   0  0  0  0  0  0  0  0  0  0  0  0
    2.5792   -5.5407   32.7870 H   0  0  0  0  0  0  0  0  0  0  0  0
    1.9431   -1.9982   34.5410 H   0  0  0  0  0  0  0  0  0  0  0  0
    3.5552   -2.1153   35.1715 H   0  0  0  0  0  0  0  0  0  0  0  0
    4.7911   -4.7099   34.2483 H   0  0  0  0  0  0  0  0  0  0  0  0
    4.2847   -5.9996   36.3965 H   0  0  0  0  0  0  0  0  0  0  0  0
    3.6197   -6.5807   34.8559 H   0  0  0  0  0  0  0  0  0  0  0  0
    1.7403   -6.3068   36.1049 H   0  0  0  0  0  0  0  0  0  0  0  0
    1.3060   -3.7387   35.5883 H   0  0  0  0  0  0  0  0  0  0  0  0
  1  2  1  0
  2  3  1  0
  3  4  1  0
  4  5  2  0
  4  6  1  0
  6  7  2  3
  7  8  1  0
  8  9  1  0
  9 10  1  0
 10 11  1  0
 11 12  1  0
 12 13  1  0
 13 14  1  0
 14 15  2  0
 14 16  1  0
 16 17  1  0
 13 18  1  0
 18 19  1  0
 10 20  1  0
 20 21  1  0
 21 22  1  0
 21 23  1  0
 23 24  1  0
 24 25  1  0
 25 26  1  0
 22  8  1  0
 19 10  1  0
 26 21  1  0
  1 27  1  0
  1 28  1  0
  1 29  1  0
  2 30  1  0
  2 31  1  0
  6 32  1  0
  7 33  1  0
  8 34  1  0
  9 35  1  0
  9 36  1  0
 11 37  1  0
 11 38  1  0
 12 39  1  0
 12 40  1  0
 13 41  1  0
 16 42  1  0
 17 43  1  0
 17 44  1  0
 17 45  1  0
 18 46  1  0
 18 47  1  0
 19 48  1  0
 19 49  1  0
 20 50  1  0
 20 51  1  0
 22 52  1  0
 22 53  1  0
 23 54  1  0
 24 55  1  0
 24 56  1  0
 25 57  1  0
 26 58  1  0
M  END
>  <Energy>  (238) 
33.219996849395145

>  <compound_id>  (238) 
273

>  <target_id>  (238) 
1

>  <reference_id>  (238) 
128

>  <inspiration_ids>  (238) 
[201, 128]

>  <energy_score>  (238) 
-20.248011252047917

>  <distance_score>  (238) 
1.6528110288028557

>  <path>  (238) 
/opt/xchem-fragalysis-2/maxwin/BulkDock/SCRATCH/505737/C273-P128/C273-P128.minimised.mol

>  <scratch_subdir>  (238) 
/opt/xchem-fragalysis-2/maxwin/BulkDock/SCRATCH/505737/C273-P128

>  <fragmenstein_runtime>  (238) 
4.035378456115723

>  <fragmenstein_outcome>  (238) 
too moved

>  <fragmenstein_mode>  (238) 
expansion

>  <fragmenstein_error>  (238) 


$$$$
C279-P201
     RDKit          3D

 52 55  0  0  0  0  0  0  0  0999 V2000
    5.7470   -4.1066   29.8980 C   0  0  0  0  0  0  0  0  0  0  0  0
    5.5734   -4.6196   28.4767 C   0  0  0  0  0  0  0  0  0  0  0  0
    4.1739   -4.5782   28.1885 O   0  0  0  0  0  0  0  0  0  0  0  0
    3.4910   -5.7074   28.4722 C   0  0  0  0  0  0  0  0  0  0  0  0
    3.8944   -6.8597   28.4767 O   0  0  0  0  0  0  0  0  0  0  0  0
    2.1444   -5.2849   28.8904 C   0  0  0  0  0  0  0  0  0  0  0  0
    1.3170   -6.1702   29.4648 C   0  0  0  0  0  0  0  0  0  0  0  0
   -0.0134   -5.8699   30.1058 C   0  0  0  0  0  0  0  0  0  0  0  0
   -0.2602   -4.3881   30.4072 C   0  0  0  0  0  0  0  0  0  0  0  0
   -0.9408   -4.2424   31.7488 C   0  0  0  0  0  0  0  0  0  0  0  0
    0.0176   -4.8466   32.7769 C   0  0  0  0  0  0  0  0  0  0  0  0
   -0.0444   -3.9243   34.3660 S   0  0  0  0  0  0  0  0  0  0  0  0
    0.1391   -2.3025   33.7573 C   0  0  0  0  0  0  0  0  0  0  0  0
   -0.6206   -1.2905   34.1263 N   0  0  0  0  0  0  0  0  0  0  0  0
   -0.6581   -0.4214   33.0492 N   0  0  0  0  0  0  0  0  0  0  0  0
    0.1182   -0.9481   32.1235 C   0  0  0  0  0  0  0  0  0  0  0  0
    0.0381   -0.6640   30.7320 C   0  0  0  0  0  0  0  0  0  0  0  0
   -1.0817   -0.6272   29.9241 C   0  0  0  0  0  0  0  0  0  0  0  0
   -0.6403   -0.4687   28.5909 C   0  0  0  0  0  0  0  0  0  0  0  0
    0.7347   -0.4028   28.6213 C   0  0  0  0  0  0  0  0  0  0  0  0
    1.1373   -0.5140   29.9280 N   0  0  0  0  0  0  0  0  0  0  0  0
    0.7948   -2.0494   32.5814 O   0  0  0  0  0  0  0  0  0  0  0  0
   -0.1730   -6.4060   32.7277 C   0  0  0  0  0  0  0  0  0  0  0  0
   -0.3773   -6.8626   31.2406 C   0  0  0  0  0  0  0  0  0  0  0  0
    0.9608   -7.1139   33.3145 N   0  0  0  0  0  0  0  0  0  0  0  0
    0.6320   -7.2210   34.7322 C   0  0  0  0  0  0  0  0  0  0  0  0
   -0.8008   -7.3249   34.7964 N   0  0  0  0  0  0  0  0  0  0  0  0
   -1.3018   -6.9502   33.4909 N   0  0  0  0  0  0  0  0  0  0  0  0
    6.8063   -4.0664   30.1669 H   0  0  0  0  0  0  0  0  0  0  0  0
    5.3181   -3.1043   30.0025 H   0  0  0  0  0  0  0  0  0  0  0  0
    5.2285   -4.7520   30.6142 H   0  0  0  0  0  0  0  0  0  0  0  0
    6.0803   -3.9564   27.7689 H   0  0  0  0  0  0  0  0  0  0  0  0
    5.9943   -5.6241   28.3589 H   0  0  0  0  0  0  0  0  0  0  0  0
    1.9189   -4.2295   28.7942 H   0  0  0  0  0  0  0  0  0  0  0  0
    1.5930   -7.2192   29.4570 H   0  0  0  0  0  0  0  0  0  0  0  0
   -0.7754   -6.1123   29.3676 H   0  0  0  0  0  0  0  0  0  0  0  0
    0.6646   -3.8031   30.4378 H   0  0  0  0  0  0  0  0  0  0  0  0
   -0.8611   -3.9311   29.6125 H   0  0  0  0  0  0  0  0  0  0  0  0
   -1.8748   -4.7878   31.7687 H   0  0  0  0  0  0  0  0  0  0  0  0
   -1.2355   -3.2065   31.8957 H   0  0  0  0  0  0  0  0  0  0  0  0
    1.0529   -4.6635   32.4535 H   0  0  0  0  0  0  0  0  0  0  0  0
   -2.1082   -0.7340   30.2508 H   0  0  0  0  0  0  0  0  0  0  0  0
   -1.2588   -0.4059   27.7025 H   0  0  0  0  0  0  0  0  0  0  0  0
    1.4541   -0.2795   27.8219 H   0  0  0  0  0  0  0  0  0  0  0  0
    2.0981   -0.4986   30.2445 H   0  0  0  0  0  0  0  0  0  0  0  0
   -1.4517   -7.0654   31.0968 H   0  0  0  0  0  0  0  0  0  0  0  0
    0.0793   -7.8441   31.0552 H   0  0  0  0  0  0  0  0  0  0  0  0
    0.8877   -8.0561   32.9604 H   0  0  0  0  0  0  0  0  0  0  0  0
    1.1237   -8.0904   35.1780 H   0  0  0  0  0  0  0  0  0  0  0  0
    0.9979   -6.3561   35.2915 H   0  0  0  0  0  0  0  0  0  0  0  0
   -1.0888   -8.2685   35.0949 H   0  0  0  0  0  0  0  0  0  0  0  0
   -1.6741   -7.7853   33.0359 H   0  0  0  0  0  0  0  0  0  0  0  0
  1  2  1  0
  2  3  1  0
  3  4  1  0
  4  5  2  0
  4  6  1  0
  6  7  2  3
  7  8  1  0
  8  9  1  0
  9 10  1  0
 10 11  1  0
 11 12  1  0
 12 13  1  0
 13 14  2  0
 14 15  1  0
 15 16  2  0
 16 17  1  0
 17 18  2  0
 18 19  1  0
 19 20  2  0
 20 21  1  0
 16 22  1  0
 11 23  1  0
 23 24  1  0
 23 25  1  0
 25 26  1  0
 26 27  1  0
 27 28  1  0
 24  8  1  0
 22 13  1  0
 28 23  1  0
 21 17  1  0
  1 29  1  0
  1 30  1  0
  1 31  1  0
  2 32  1  0
  2 33  1  0
  6 34  1  0
  7 35  1  0
  8 36  1  0
  9 37  1  0
  9 38  1  0
 10 39  1  0
 10 40  1  0
 11 41  1  0
 18 42  1  0
 19 43  1  0
 20 44  1  0
 21 45  1  0
 24 46  1  0
 24 47  1  0
 25 48  1  0
 26 49  1  0
 26 50  1  0
 27 51  1  0
 28 52  1  0
M  END
>  <Energy>  (239) 
66.176267658003297

>  <compound_id>  (239) 
279

>  <target_id>  (239) 
1

>  <reference_id>  (239) 
201

>  <inspiration_ids>  (239) 
[201, 135]

>  <energy_score>  (239) 
-47.09856520386097

>  <distance_score>  (239) 
1.563309857981896

>  <path>  (239) 
/opt/xchem-fragalysis-2/maxwin/BulkDock/SCRATCH/505737/C279-P201/C279-P201.minimised.mol

>  <scratch_subdir>  (239) 
/opt/xchem-fragalysis-2/maxwin/BulkDock/SCRATCH/505737/C279-P201

>  <fragmenstein_runtime>  (239) 
15.981622219085693

>  <fragmenstein_outcome>  (239) 
too moved

>  <fragmenstein_mode>  (239) 
expansion

>  <fragmenstein_error>  (239) 


$$$$
C279-P135
     RDKit          3D

 52 55  0  0  0  0  0  0  0  0999 V2000
    5.9746   -3.0604   30.7489 C   0  0  0  0  0  0  0  0  0  0  0  0
    5.1118   -2.3407   29.7311 C   0  0  0  0  0  0  0  0  0  0  0  0
    4.3836   -3.3082   28.9699 O   0  0  0  0  0  0  0  0  0  0  0  0
    3.3649   -3.8937   29.6427 C   0  0  0  0  0  0  0  0  0  0  0  0
    2.9250   -3.5615   30.7282 O   0  0  0  0  0  0  0  0  0  0  0  0
    2.9545   -5.0743   28.8604 C   0  0  0  0  0  0  0  0  0  0  0  0
    1.8773   -5.8494   29.0582 C   0  0  0  0  0  0  0  0  0  0  0  0
    0.6828   -5.7193   29.9964 C   0  0  0  0  0  0  0  0  0  0  0  0
    0.0626   -4.3228   30.0655 C   0  0  0  0  0  0  0  0  0  0  0  0
   -0.7261   -4.0893   31.3437 C   0  0  0  0  0  0  0  0  0  0  0  0
    0.0829   -4.5413   32.5747 C   0  0  0  0  0  0  0  0  0  0  0  0
   -0.4422   -3.7317   34.1344 S   0  0  0  0  0  0  0  0  0  0  0  0
   -0.2885   -2.0766   33.6306 C   0  0  0  0  0  0  0  0  0  0  0  0
   -1.1835   -1.1444   33.8878 N   0  0  0  0  0  0  0  0  0  0  0  0
   -1.1092   -0.2445   32.8380 N   0  0  0  0  0  0  0  0  0  0  0  0
   -0.1552   -0.6887   32.0431 C   0  0  0  0  0  0  0  0  0  0  0  0
   -0.0544   -0.4252   30.6489 C   0  0  0  0  0  0  0  0  0  0  0  0
   -1.0467   -0.0999   29.7480 C   0  0  0  0  0  0  0  0  0  0  0  0
   -0.4927   -0.1938   28.4495 C   0  0  0  0  0  0  0  0  0  0  0  0
    0.8355   -0.5254   28.5956 C   0  0  0  0  0  0  0  0  0  0  0  0
    1.0920   -0.6653   29.9356 N   0  0  0  0  0  0  0  0  0  0  0  0
    0.5416   -1.7250   32.6049 O   0  0  0  0  0  0  0  0  0  0  0  0
    0.1483   -6.1002   32.5373 C   0  0  0  0  0  0  0  0  0  0  0  0
    1.0178   -6.4118   31.3161 C   0  0  0  0  0  0  0  0  0  0  0  0
    0.7542   -6.7684   33.6888 N   0  0  0  0  0  0  0  0  0  0  0  0
   -0.3399   -7.0662   34.6045 C   0  0  0  0  0  0  0  0  0  0  0  0
   -1.5512   -6.9698   33.8185 N   0  0  0  0  0  0  0  0  0  0  0  0
   -1.1355   -6.7849   32.4361 N   0  0  0  0  0  0  0  0  0  0  0  0
    6.6059   -3.8094   30.2589 H   0  0  0  0  0  0  0  0  0  0  0  0
    6.6196   -2.3493   31.2735 H   0  0  0  0  0  0  0  0  0  0  0  0
    5.3764   -3.5892   31.4969 H   0  0  0  0  0  0  0  0  0  0  0  0
    4.4352   -1.6191   30.2031 H   0  0  0  0  0  0  0  0  0  0  0  0
    5.7454   -1.7870   29.0310 H   0  0  0  0  0  0  0  0  0  0  0  0
    3.6751   -5.3677   28.0999 H   0  0  0  0  0  0  0  0  0  0  0  0
    1.8903   -6.7579   28.4669 H   0  0  0  0  0  0  0  0  0  0  0  0
   -0.1250   -6.3385   29.5924 H   0  0  0  0  0  0  0  0  0  0  0  0
    0.7981   -3.5279   29.9703 H   0  0  0  0  0  0  0  0  0  0  0  0
   -0.6013   -4.1757   29.2036 H   0  0  0  0  0  0  0  0  0  0  0  0
   -1.6591   -4.6379   31.2947 H   0  0  0  0  0  0  0  0  0  0  0  0
   -1.0458   -3.0505   31.3593 H   0  0  0  0  0  0  0  0  0  0  0  0
    1.1142   -4.1813   32.4667 H   0  0  0  0  0  0  0  0  0  0  0  0
   -2.0775    0.1184   29.9954 H   0  0  0  0  0  0  0  0  0  0  0  0
   -1.0116   -0.0454   27.5096 H   0  0  0  0  0  0  0  0  0  0  0  0
    1.6096   -0.6977   27.8602 H   0  0  0  0  0  0  0  0  0  0  0  0
    1.9650   -0.9853   30.3364 H   0  0  0  0  0  0  0  0  0  0  0  0
    0.9577   -7.4867   31.1223 H   0  0  0  0  0  0  0  0  0  0  0  0
    2.0554   -6.1719   31.5860 H   0  0  0  0  0  0  0  0  0  0  0  0
    1.0588   -7.6743   33.3639 H   0  0  0  0  0  0  0  0  0  0  0  0
   -0.2309   -8.0690   35.0271 H   0  0  0  0  0  0  0  0  0  0  0  0
   -0.3490   -6.3701   35.4493 H   0  0  0  0  0  0  0  0  0  0  0  0
   -2.0169   -6.1105   34.1537 H   0  0  0  0  0  0  0  0  0  0  0  0
   -1.0015   -7.7121   32.0309 H   0  0  0  0  0  0  0  0  0  0  0  0
  1  2  1  0
  2  3  1  0
  3  4  1  0
  4  5  2  0
  4  6  1  0
  6  7  2  3
  7  8  1  0
  8  9  1  0
  9 10  1  0
 10 11  1  0
 11 12  1  0
 12 13  1  0
 13 14  2  0
 14 15  1  0
 15 16  2  0
 16 17  1  0
 17 18  2  0
 18 19  1  0
 19 20  2  0
 20 21  1  0
 16 22  1  0
 11 23  1  0
 23 24  1  0
 23 25  1  0
 25 26  1  0
 26 27  1  0
 27 28  1  0
 24  8  1  0
 22 13  1  0
 28 23  1  0
 21 17  1  0
  1 29  1  0
  1 30  1  0
  1 31  1  0
  2 32  1  0
  2 33  1  0
  6 34  1  0
  7 35  1  0
  8 36  1  0
  9 37  1  0
  9 38  1  0
 10 39  1  0
 10 40  1  0
 11 41  1  0
 18 42  1  0
 19 43  1  0
 20 44  1  0
 21 45  1  0
 24 46  1  0
 24 47  1  0
 25 48  1  0
 26 49  1  0
 26 50  1  0
 27 51  1  0
 28 52  1  0
M  END
>  <Energy>  (240) 
48.721524333539051

>  <compound_id>  (240) 
279

>  <target_id>  (240) 
1

>  <reference_id>  (240) 
135

>  <inspiration_ids>  (240) 
[201, 135]

>  <energy_score>  (240) 
-64.55330852832441

>  <distance_score>  (240) 
1.8891996901047257

>  <path>  (240) 
/opt/xchem-fragalysis-2/maxwin/BulkDock/SCRATCH/505737/C279-P135/C279-P135.minimised.mol

>  <scratch_subdir>  (240) 
/opt/xchem-fragalysis-2/maxwin/BulkDock/SCRATCH/505737/C279-P135

>  <fragmenstein_runtime>  (240) 
9.1477530002594

>  <fragmenstein_outcome>  (240) 
too moved

>  <fragmenstein_mode>  (240) 
expansion

>  <fragmenstein_error>  (240) 


$$$$
C279-P201
     RDKit          3D

 52 55  0  0  0  0  0  0  0  0999 V2000
    5.9024   -4.3520   29.1309 C   0  0  0  0  0  0  0  0  0  0  0  0
    5.5577   -4.8695   27.7396 C   0  0  0  0  0  0  0  0  0  0  0  0
    4.1521   -4.6800   27.5562 O   0  0  0  0  0  0  0  0  0  0  0  0
    3.3956   -5.7016   28.0115 C   0  0  0  0  0  0  0  0  0  0  0  0
    3.6554   -6.8964   27.9979 O   0  0  0  0  0  0  0  0  0  0  0  0
    2.2040   -5.1032   28.6422 C   0  0  0  0  0  0  0  0  0  0  0  0
    1.4098   -5.9225   29.3432 C   0  0  0  0  0  0  0  0  0  0  0  0
    0.3921   -5.5423   30.3964 C   0  0  0  0  0  0  0  0  0  0  0  0
    0.3105   -4.0419   30.7136 C   0  0  0  0  0  0  0  0  0  0  0  0
   -0.4426   -3.7198   32.0125 C   0  0  0  0  0  0  0  0  0  0  0  0
    0.1648   -4.4865   33.2017 C   0  0  0  0  0  0  0  0  0  0  0  0
   -0.4569   -3.8525   34.8503 S   0  0  0  0  0  0  0  0  0  0  0  0
    0.6558   -2.5471   35.1536 C   0  0  0  0  0  0  0  0  0  0  0  0
    1.7147   -2.6428   35.9338 N   0  0  0  0  0  0  0  0  0  0  0  0
    2.6311   -1.7323   35.4392 N   0  0  0  0  0  0  0  0  0  0  0  0
    2.0606   -1.2029   34.3720 C   0  0  0  0  0  0  0  0  0  0  0  0
    2.7325   -1.0724   33.1305 C   0  0  0  0  0  0  0  0  0  0  0  0
    2.2528   -0.6190   31.9208 C   0  0  0  0  0  0  0  0  0  0  0  0
    3.0938   -1.1599   30.9223 C   0  0  0  0  0  0  0  0  0  0  0  0
    4.0772   -1.8825   31.5615 C   0  0  0  0  0  0  0  0  0  0  0  0
    3.9033   -1.7437   32.9116 N   0  0  0  0  0  0  0  0  0  0  0  0
    0.7182   -1.4551   34.3353 O   0  0  0  0  0  0  0  0  0  0  0  0
    0.0388   -6.0311   32.9367 C   0  0  0  0  0  0  0  0  0  0  0  0
    0.8042   -6.3539   31.6338 C   0  0  0  0  0  0  0  0  0  0  0  0
    0.6649   -6.8313   34.0099 N   0  0  0  0  0  0  0  0  0  0  0  0
   -0.4591   -7.4372   34.7071 C   0  0  0  0  0  0  0  0  0  0  0  0
   -1.3035   -7.7782   33.5885 N   0  0  0  0  0  0  0  0  0  0  0  0
   -1.3243   -6.5562   32.8242 N   0  0  0  0  0  0  0  0  0  0  0  0
    5.3394   -4.8806   29.9064 H   0  0  0  0  0  0  0  0  0  0  0  0
    6.9714   -4.4687   29.3303 H   0  0  0  0  0  0  0  0  0  0  0  0
    5.6485   -3.2907   29.2041 H   0  0  0  0  0  0  0  0  0  0  0  0
    6.0777   -4.2817   26.9767 H   0  0  0  0  0  0  0  0  0  0  0  0
    5.8551   -5.9167   27.6164 H   0  0  0  0  0  0  0  0  0  0  0  0
    2.1398   -4.0229   28.6762 H   0  0  0  0  0  0  0  0  0  0  0  0
    1.5668   -6.9972   29.2474 H   0  0  0  0  0  0  0  0  0  0  0  0
   -0.5923   -5.8839   30.0588 H   0  0  0  0  0  0  0  0  0  0  0  0
    1.3207   -3.6270   30.8149 H   0  0  0  0  0  0  0  0  0  0  0  0
   -0.1646   -3.5115   29.8791 H   0  0  0  0  0  0  0  0  0  0  0  0
   -1.5043   -3.9612   31.8945 H   0  0  0  0  0  0  0  0  0  0  0  0
   -0.3838   -2.6382   32.1777 H   0  0  0  0  0  0  0  0  0  0  0  0
    1.2413   -4.2646   33.2229 H   0  0  0  0  0  0  0  0  0  0  0  0
    1.3322   -0.0700   31.7630 H   0  0  0  0  0  0  0  0  0  0  0  0
    2.9818   -1.0506   29.8507 H   0  0  0  0  0  0  0  0  0  0  0  0
    4.9114   -2.4508   31.1789 H   0  0  0  0  0  0  0  0  0  0  0  0
    4.4450   -2.2042   33.6344 H   0  0  0  0  0  0  0  0  0  0  0  0
    0.6990   -7.4231   31.3976 H   0  0  0  0  0  0  0  0  0  0  0  0
    1.8773   -6.1906   31.8226 H   0  0  0  0  0  0  0  0  0  0  0  0
    1.0989   -7.6262   33.5590 H   0  0  0  0  0  0  0  0  0  0  0  0
   -0.1465   -8.3130   35.2797 H   0  0  0  0  0  0  0  0  0  0  0  0
   -0.9429   -6.7439   35.4044 H   0  0  0  0  0  0  0  0  0  0  0  0
   -2.2049   -8.0715   33.9709 H   0  0  0  0  0  0  0  0  0  0  0  0
   -1.5902   -6.7329   31.8585 H   0  0  0  0  0  0  0  0  0  0  0  0
  1  2  1  0
  2  3  1  0
  3  4  1  0
  4  5  2  0
  4  6  1  0
  6  7  2  3
  7  8  1  0
  8  9  1  0
  9 10  1  0
 10 11  1  0
 11 12  1  0
 12 13  1  0
 13 14  2  0
 14 15  1  0
 15 16  2  0
 16 17  1  0
 17 18  2  0
 18 19  1  0
 19 20  2  0
 20 21  1  0
 16 22  1  0
 11 23  1  0
 23 24  1  0
 23 25  1  0
 25 26  1  0
 26 27  1  0
 27 28  1  0
 24  8  1  0
 22 13  1  0
 28 23  1  0
 21 17  1  0
  1 29  1  0
  1 30  1  0
  1 31  1  0
  2 32  1  0
  2 33  1  0
  6 34  1  0
  7 35  1  0
  8 36  1  0
  9 37  1  0
  9 38  1  0
 10 39  1  0
 10 40  1  0
 11 41  1  0
 18 42  1  0
 19 43  1  0
 20 44  1  0
 21 45  1  0
 24 46  1  0
 24 47  1  0
 25 48  1  0
 26 49  1  0
 26 50  1  0
 27 51  1  0
 28 52  1  0
M  END
>  <Energy>  (241) 
52.345774254428441

>  <compound_id>  (241) 
279

>  <target_id>  (241) 
1

>  <reference_id>  (241) 
201

>  <inspiration_ids>  (241) 
[201, 136]

>  <energy_score>  (241) 
-60.92905860743713

>  <distance_score>  (241) 
2.0539805276469796

>  <path>  (241) 
/opt/xchem-fragalysis-2/maxwin/BulkDock/SCRATCH/505737/C279-P201/C279-P201.minimised.mol

>  <scratch_subdir>  (241) 
/opt/xchem-fragalysis-2/maxwin/BulkDock/SCRATCH/505737/C279-P201

>  <fragmenstein_runtime>  (241) 
8.509860277175903

>  <fragmenstein_outcome>  (241) 
too moved

>  <fragmenstein_mode>  (241) 
expansion

>  <fragmenstein_error>  (241) 


$$$$
C279-P136
     RDKit          3D

 52 55  0  0  0  0  0  0  0  0999 V2000
    5.7269   -3.7300   30.5138 C   0  0  0  0  0  0  0  0  0  0  0  0
    5.6114   -3.3277   29.0548 C   0  0  0  0  0  0  0  0  0  0  0  0
    4.7748   -4.2964   28.4211 O   0  0  0  0  0  0  0  0  0  0  0  0
    3.4459   -4.0388   28.5059 C   0  0  0  0  0  0  0  0  0  0  0  0
    2.9080   -2.9655   28.6750 O   0  0  0  0  0  0  0  0  0  0  0  0
    2.8061   -5.3630   28.4480 C   0  0  0  0  0  0  0  0  0  0  0  0
    1.7961   -5.8487   29.1837 C   0  0  0  0  0  0  0  0  0  0  0  0
    0.8503   -5.3210   30.2500 C   0  0  0  0  0  0  0  0  0  0  0  0
    0.9426   -3.8439   30.6336 C   0  0  0  0  0  0  0  0  0  0  0  0
    0.0556   -3.4758   31.8341 C   0  0  0  0  0  0  0  0  0  0  0  0
    0.4243   -4.3346   33.0562 C   0  0  0  0  0  0  0  0  0  0  0  0
   -0.4260   -3.7505   34.6287 S   0  0  0  0  0  0  0  0  0  0  0  0
    0.6879   -2.4965   35.1065 C   0  0  0  0  0  0  0  0  0  0  0  0
    1.7779   -2.7201   35.8139 N   0  0  0  0  0  0  0  0  0  0  0  0
    2.6910   -1.7646   35.4062 N   0  0  0  0  0  0  0  0  0  0  0  0
    2.0819   -1.0781   34.4562 C   0  0  0  0  0  0  0  0  0  0  0  0
    2.7152   -0.6827   33.2554 C   0  0  0  0  0  0  0  0  0  0  0  0
    2.1293   -0.2435   32.0865 C   0  0  0  0  0  0  0  0  0  0  0  0
    3.0860   -0.4016   31.0658 C   0  0  0  0  0  0  0  0  0  0  0  0
    4.2462   -0.8390   31.6634 C   0  0  0  0  0  0  0  0  0  0  0  0
    4.0228   -0.9783   33.0048 N   0  0  0  0  0  0  0  0  0  0  0  0
    0.7384   -1.3126   34.4344 O   0  0  0  0  0  0  0  0  0  0  0  0
    0.1864   -5.8429   32.7100 C   0  0  0  0  0  0  0  0  0  0  0  0
    1.0289   -6.2230   31.4837 C   0  0  0  0  0  0  0  0  0  0  0  0
    0.5757   -6.7544   33.8030 N   0  0  0  0  0  0  0  0  0  0  0  0
   -0.6140   -7.5250   34.1236 C   0  0  0  0  0  0  0  0  0  0  0  0
   -1.6902   -6.6759   33.7026 N   0  0  0  0  0  0  0  0  0  0  0  0
   -1.2244   -6.1128   32.4552 N   0  0  0  0  0  0  0  0  0  0  0  0
    6.0963   -4.7579   30.5986 H   0  0  0  0  0  0  0  0  0  0  0  0
    6.4193   -3.0728   31.0463 H   0  0  0  0  0  0  0  0  0  0  0  0
    4.7535   -3.7061   31.0137 H   0  0  0  0  0  0  0  0  0  0  0  0
    5.2300   -2.3079   28.9374 H   0  0  0  0  0  0  0  0  0  0  0  0
    6.5930   -3.3725   28.5729 H   0  0  0  0  0  0  0  0  0  0  0  0
    3.3128   -6.0377   27.7611 H   0  0  0  0  0  0  0  0  0  0  0  0
    1.6186   -6.9069   29.0108 H   0  0  0  0  0  0  0  0  0  0  0  0
   -0.1651   -5.4831   29.8665 H   0  0  0  0  0  0  0  0  0  0  0  0
    1.9764   -3.5915   30.8974 H   0  0  0  0  0  0  0  0  0  0  0  0
    0.6514   -3.2191   29.7816 H   0  0  0  0  0  0  0  0  0  0  0  0
   -1.0007   -3.5987   31.5654 H   0  0  0  0  0  0  0  0  0  0  0  0
    0.1962   -2.4134   32.0514 H   0  0  0  0  0  0  0  0  0  0  0  0
    1.4993   -4.2132   33.2498 H   0  0  0  0  0  0  0  0  0  0  0  0
    1.0923    0.0428   31.9577 H   0  0  0  0  0  0  0  0  0  0  0  0
    2.9500   -0.2121   30.0075 H   0  0  0  0  0  0  0  0  0  0  0  0
    5.2211   -1.0384   31.2446 H   0  0  0  0  0  0  0  0  0  0  0  0
    4.6777   -1.3421   33.6871 H   0  0  0  0  0  0  0  0  0  0  0  0
    0.8087   -7.2621   31.2022 H   0  0  0  0  0  0  0  0  0  0  0  0
    2.0877   -6.1916   31.7793 H   0  0  0  0  0  0  0  0  0  0  0  0
    0.7344   -6.1710   34.6264 H   0  0  0  0  0  0  0  0  0  0  0  0
   -0.6442   -8.4302   33.5197 H   0  0  0  0  0  0  0  0  0  0  0  0
   -0.6679   -7.7944   35.1824 H   0  0  0  0  0  0  0  0  0  0  0  0
   -1.8169   -5.9354   34.4068 H   0  0  0  0  0  0  0  0  0  0  0  0
   -1.3054   -6.8322   31.7350 H   0  0  0  0  0  0  0  0  0  0  0  0
  1  2  1  0
  2  3  1  0
  3  4  1  0
  4  5  2  0
  4  6  1  0
  6  7  2  3
  7  8  1  0
  8  9  1  0
  9 10  1  0
 10 11  1  0
 11 12  1  0
 12 13  1  0
 13 14  2  0
 14 15  1  0
 15 16  2  0
 16 17  1  0
 17 18  2  0
 18 19  1  0
 19 20  2  0
 20 21  1  0
 16 22  1  0
 11 23  1  0
 23 24  1  0
 23 25  1  0
 25 26  1  0
 26 27  1  0
 27 28  1  0
 24  8  1  0
 22 13  1  0
 28 23  1  0
 21 17  1  0
  1 29  1  0
  1 30  1  0
  1 31  1  0
  2 32  1  0
  2 33  1  0
  6 34  1  0
  7 35  1  0
  8 36  1  0
  9 37  1  0
  9 38  1  0
 10 39  1  0
 10 40  1  0
 11 41  1  0
 18 42  1  0
 19 43  1  0
 20 44  1  0
 21 45  1  0
 24 46  1  0
 24 47  1  0
 25 48  1  0
 26 49  1  0
 26 50  1  0
 27 51  1  0
 28 52  1  0
M  END
>  <Energy>  (242) 
49.082717005450561

>  <compound_id>  (242) 
279

>  <target_id>  (242) 
1

>  <reference_id>  (242) 
136

>  <inspiration_ids>  (242) 
[201, 136]

>  <energy_score>  (242) 
-64.19211585641443

>  <distance_score>  (242) 
2.3351255023677773

>  <path>  (242) 
/opt/xchem-fragalysis-2/maxwin/BulkDock/SCRATCH/505737/C279-P136/C279-P136.minimised.mol

>  <scratch_subdir>  (242) 
/opt/xchem-fragalysis-2/maxwin/BulkDock/SCRATCH/505737/C279-P136

>  <fragmenstein_runtime>  (242) 
8.585952997207642

>  <fragmenstein_outcome>  (242) 
too moved

>  <fragmenstein_mode>  (242) 
expansion

>  <fragmenstein_error>  (242) 


$$$$
C280-P201
     RDKit          3D

 56 59  0  0  0  0  0  0  0  0999 V2000
    5.0048   -3.9332   29.7569 C   0  0  0  0  0  0  0  0  0  0  0  0
    5.1441   -4.9499   28.6407 C   0  0  0  0  0  0  0  0  0  0  0  0
    4.3144   -6.1084   28.8785 O   0  0  0  0  0  0  0  0  0  0  0  0
    3.1039   -6.2779   28.3020 C   0  0  0  0  0  0  0  0  0  0  0  0
    2.6150   -7.3918   28.1464 O   0  0  0  0  0  0  0  0  0  0  0  0
    2.3953   -5.0723   27.8854 C   0  0  0  0  0  0  0  0  0  0  0  0
    1.3628   -4.4940   28.5170 C   0  0  0  0  0  0  0  0  0  0  0  0
    0.5781   -4.7469   29.7956 C   0  0  0  0  0  0  0  0  0  0  0  0
    1.0927   -3.7853   30.8761 C   0  0  0  0  0  0  0  0  0  0  0  0
    2.0428   -4.4695   31.8451 C   0  0  0  0  0  0  0  0  0  0  0  0
    1.4628   -5.6940   32.5679 C   0  0  0  0  0  0  0  0  0  0  0  0
    1.1443   -5.3095   33.9608 N   0  0  0  0  0  0  0  0  0  0  0  0
    1.9927   -5.7105   34.9290 C   0  0  0  0  0  0  0  0  0  0  0  0
    3.2721   -5.9947   34.8832 N   0  0  0  0  0  0  0  0  0  0  0  0
    3.6521   -6.4573   36.1265 N   0  0  0  0  0  0  0  0  0  0  0  0
    2.5821   -6.4967   36.8958 C   0  0  0  0  0  0  0  0  0  0  0  0
    2.4515   -7.0387   38.2433 C   0  0  0  0  0  0  0  0  0  0  0  0
    1.2312   -7.5766   38.6808 C   0  0  0  0  0  0  0  0  0  0  0  0
    1.0986   -8.0903   39.9709 C   0  0  0  0  0  0  0  0  0  0  0  0
    2.1868   -8.0827   40.8373 C   0  0  0  0  0  0  0  0  0  0  0  0
    3.4112   -7.5722   40.4098 C   0  0  0  0  0  0  0  0  0  0  0  0
    3.5449   -7.0567   39.1170 C   0  0  0  0  0  0  0  0  0  0  0  0
    1.5423   -5.9393   36.1946 N   0  0  0  0  0  0  0  0  0  0  0  0
    0.1948   -6.2885   31.8370 C   0  0  0  0  0  0  0  0  0  0  0  0
    0.3907   -6.1860   30.3118 C   0  0  0  0  0  0  0  0  0  0  0  0
   -0.0655   -7.6885   32.1867 N   0  0  0  0  0  0  0  0  0  0  0  0
   -0.8333   -7.6606   33.4109 C   0  0  0  0  0  0  0  0  0  0  0  0
   -1.5472   -6.4204   33.3441 N   0  0  0  0  0  0  0  0  0  0  0  0
   -1.0390   -5.6296   32.2642 N   0  0  0  0  0  0  0  0  0  0  0  0
    4.0108   -3.4811   29.7566 H   0  0  0  0  0  0  0  0  0  0  0  0
    5.7383   -3.1306   29.6360 H   0  0  0  0  0  0  0  0  0  0  0  0
    5.1591   -4.4041   30.7326 H   0  0  0  0  0  0  0  0  0  0  0  0
    4.9429   -4.5056   27.6607 H   0  0  0  0  0  0  0  0  0  0  0  0
    6.1765   -5.3146   28.6140 H   0  0  0  0  0  0  0  0  0  0  0  0
    2.7580   -4.6427   26.9568 H   0  0  0  0  0  0  0  0  0  0  0  0
    0.9957   -3.5870   28.0235 H   0  0  0  0  0  0  0  0  0  0  0  0
   -0.4357   -4.3955   29.5517 H   0  0  0  0  0  0  0  0  0  0  0  0
    0.2512   -3.3550   31.4305 H   0  0  0  0  0  0  0  0  0  0  0  0
    1.5998   -2.9193   30.4306 H   0  0  0  0  0  0  0  0  0  0  0  0
    2.4334   -3.7325   32.5575 H   0  0  0  0  0  0  0  0  0  0  0  0
    2.9089   -4.8207   31.2762 H   0  0  0  0  0  0  0  0  0  0  0  0
    2.2378   -6.4710   32.5710 H   0  0  0  0  0  0  0  0  0  0  0  0
    0.1463   -5.3681   34.1329 H   0  0  0  0  0  0  0  0  0  0  0  0
    0.3732   -7.6496   38.0170 H   0  0  0  0  0  0  0  0  0  0  0  0
    0.1526   -8.5222   40.2875 H   0  0  0  0  0  0  0  0  0  0  0  0
    2.0873   -8.4887   41.8405 H   0  0  0  0  0  0  0  0  0  0  0  0
    4.2667   -7.5761   41.0805 H   0  0  0  0  0  0  0  0  0  0  0  0
    4.5072   -6.6637   38.7935 H   0  0  0  0  0  0  0  0  0  0  0  0
    0.6042   -5.8021   36.5291 H   0  0  0  0  0  0  0  0  0  0  0  0
   -0.4799   -6.6248   29.8091 H   0  0  0  0  0  0  0  0  0  0  0  0
    1.2413   -6.8089   30.0393 H   0  0  0  0  0  0  0  0  0  0  0  0
   -0.7102   -8.0451   31.4863 H   0  0  0  0  0  0  0  0  0  0  0  0
   -0.1848   -7.7174   34.2893 H   0  0  0  0  0  0  0  0  0  0  0  0
   -1.5381   -8.4910   33.4463 H   0  0  0  0  0  0  0  0  0  0  0  0
   -1.7128   -5.9561   34.2381 H   0  0  0  0  0  0  0  0  0  0  0  0
   -0.8593   -4.6617   32.5408 H   0  0  0  0  0  0  0  0  0  0  0  0
  1  2  1  0
  2  3  1  0
  3  4  1  0
  4  5  2  0
  4  6  1  0
  6  7  2  3
  7  8  1  0
  8  9  1  0
  9 10  1  0
 10 11  1  0
 11 12  1  0
 12 13  1  0
 13 14  2  0
 14 15  1  0
 15 16  2  0
 16 17  1  0
 17 18  2  0
 18 19  1  0
 19 20  2  0
 20 21  1  0
 21 22  2  0
 16 23  1  0
 11 24  1  0
 24 25  1  0
 24 26  1  0
 26 27  1  0
 27 28  1  0
 28 29  1  0
 25  8  1  0
 23 13  1  0
 29 24  1  0
 22 17  1  0
  1 30  1  0
  1 31  1  0
  1 32  1  0
  2 33  1  0
  2 34  1  0
  6 35  1  0
  7 36  1  0
  8 37  1  0
  9 38  1  0
  9 39  1  0
 10 40  1  0
 10 41  1  0
 11 42  1  0
 12 43  1  0
 18 44  1  0
 19 45  1  0
 20 46  1  0
 21 47  1  0
 22 48  1  0
 23 49  1  0
 25 50  1  0
 25 51  1  0
 26 52  1  0
 27 53  1  0
 27 54  1  0
 28 55  1  0
 29 56  1  0
M  END
>  <Energy>  (243) 
72.507931412072395

>  <compound_id>  (243) 
280

>  <target_id>  (243) 
1

>  <reference_id>  (243) 
201

>  <inspiration_ids>  (243) 
[201, 140]

>  <energy_score>  (243) 
-62.2669461088382

>  <distance_score>  (243) 
1.1986185222101593

>  <path>  (243) 
/opt/xchem-fragalysis-2/maxwin/BulkDock/SCRATCH/505737/C280-P201/C280-P201.minimised.mol

>  <scratch_subdir>  (243) 
/opt/xchem-fragalysis-2/maxwin/BulkDock/SCRATCH/505737/C280-P201

>  <fragmenstein_runtime>  (243) 
10.128949880599976

>  <fragmenstein_outcome>  (243) 
too moved

>  <fragmenstein_mode>  (243) 
expansion

>  <fragmenstein_error>  (243) 


$$$$
C280-P140
     RDKit          3D

 56 59  0  0  0  0  0  0  0  0999 V2000
    5.2907   -2.5986   29.5668 C   0  0  0  0  0  0  0  0  0  0  0  0
    4.4135   -2.3250   28.3525 C   0  0  0  0  0  0  0  0  0  0  0  0
    3.4070   -3.3420   28.2795 O   0  0  0  0  0  0  0  0  0  0  0  0
    3.8025   -4.4900   27.7033 C   0  0  0  0  0  0  0  0  0  0  0  0
    4.7501   -4.6331   26.9463 O   0  0  0  0  0  0  0  0  0  0  0  0
    3.0142   -5.6522   28.1680 C   0  0  0  0  0  0  0  0  0  0  0  0
    2.0008   -5.7573   29.0489 C   0  0  0  0  0  0  0  0  0  0  0  0
    1.2285   -4.6720   29.7650 C   0  0  0  0  0  0  0  0  0  0  0  0
    2.0898   -3.8420   30.7186 C   0  0  0  0  0  0  0  0  0  0  0  0
    1.6235   -3.8050   32.1574 C   0  0  0  0  0  0  0  0  0  0  0  0
    1.3068   -5.2171   32.6317 C   0  0  0  0  0  0  0  0  0  0  0  0
    1.0973   -5.1381   34.0845 N   0  0  0  0  0  0  0  0  0  0  0  0
    1.9640   -5.7146   34.9321 C   0  0  0  0  0  0  0  0  0  0  0  0
    3.1711   -6.1939   34.7624 N   0  0  0  0  0  0  0  0  0  0  0  0
    3.5909   -6.7193   35.9702 N   0  0  0  0  0  0  0  0  0  0  0  0
    2.6132   -6.5809   36.8457 C   0  0  0  0  0  0  0  0  0  0  0  0
    2.5337   -7.0735   38.2159 C   0  0  0  0  0  0  0  0  0  0  0  0
    1.2923   -7.4136   38.7763 C   0  0  0  0  0  0  0  0  0  0  0  0
    1.2062   -7.9129   40.0752 C   0  0  0  0  0  0  0  0  0  0  0  0
    2.3602   -8.0749   40.8333 C   0  0  0  0  0  0  0  0  0  0  0  0
    3.6005   -7.7441   40.2907 C   0  0  0  0  0  0  0  0  0  0  0  0
    3.6886   -7.2510   38.9852 C   0  0  0  0  0  0  0  0  0  0  0  0
    1.6005   -5.8928   36.2319 N   0  0  0  0  0  0  0  0  0  0  0  0
    0.0017   -5.7129   31.8842 C   0  0  0  0  0  0  0  0  0  0  0  0
   -0.0689   -5.1849   30.4261 C   0  0  0  0  0  0  0  0  0  0  0  0
   -0.2001   -7.1688   31.9500 N   0  0  0  0  0  0  0  0  0  0  0  0
   -0.8958   -7.4199   33.2114 C   0  0  0  0  0  0  0  0  0  0  0  0
   -1.3282   -6.1332   33.7026 N   0  0  0  0  0  0  0  0  0  0  0  0
   -1.2129   -5.2452   32.5780 N   0  0  0  0  0  0  0  0  0  0  0  0
    4.7080   -2.5412   30.4904 H   0  0  0  0  0  0  0  0  0  0  0  0
    6.0954   -1.8600   29.6278 H   0  0  0  0  0  0  0  0  0  0  0  0
    5.7359   -3.5975   29.5241 H   0  0  0  0  0  0  0  0  0  0  0  0
    3.9031   -1.3636   28.4687 H   0  0  0  0  0  0  0  0  0  0  0  0
    5.0038   -2.2733   27.4307 H   0  0  0  0  0  0  0  0  0  0  0  0
    3.3923   -6.5533   27.6956 H   0  0  0  0  0  0  0  0  0  0  0  0
    1.6251   -6.7581   29.2415 H   0  0  0  0  0  0  0  0  0  0  0  0
    0.8925   -3.9951   28.9647 H   0  0  0  0  0  0  0  0  0  0  0  0
    2.1310   -2.8045   30.3651 H   0  0  0  0  0  0  0  0  0  0  0  0
    3.1211   -4.2147   30.7222 H   0  0  0  0  0  0  0  0  0  0  0  0
    0.7563   -3.1408   32.2609 H   0  0  0  0  0  0  0  0  0  0  0  0
    2.4165   -3.3605   32.7730 H   0  0  0  0  0  0  0  0  0  0  0  0
    2.1382   -5.8899   32.3881 H   0  0  0  0  0  0  0  0  0  0  0  0
    0.0967   -5.2461   34.2884 H   0  0  0  0  0  0  0  0  0  0  0  0
    0.3749   -7.3506   38.1993 H   0  0  0  0  0  0  0  0  0  0  0  0
    0.2450   -8.2164   40.4827 H   0  0  0  0  0  0  0  0  0  0  0  0
    2.2961   -8.4835   41.8386 H   0  0  0  0  0  0  0  0  0  0  0  0
    4.5043   -7.8843   40.8782 H   0  0  0  0  0  0  0  0  0  0  0  0
    4.6648   -7.0108   38.5683 H   0  0  0  0  0  0  0  0  0  0  0  0
    0.7368   -5.5917   36.6498 H   0  0  0  0  0  0  0  0  0  0  0  0
   -0.7488   -4.3188   30.4114 H   0  0  0  0  0  0  0  0  0  0  0  0
   -0.5464   -5.9255   29.7761 H   0  0  0  0  0  0  0  0  0  0  0  0
   -0.8834   -7.3932   31.2341 H   0  0  0  0  0  0  0  0  0  0  0  0
   -0.2317   -7.8518   33.9562 H   0  0  0  0  0  0  0  0  0  0  0  0
   -1.7446   -8.0891   33.0442 H   0  0  0  0  0  0  0  0  0  0  0  0
   -2.2603   -6.1762   34.0969 H   0  0  0  0  0  0  0  0  0  0  0  0
   -1.0928   -4.2699   32.8763 H   0  0  0  0  0  0  0  0  0  0  0  0
  1  2  1  0
  2  3  1  0
  3  4  1  0
  4  5  2  0
  4  6  1  0
  6  7  2  3
  7  8  1  0
  8  9  1  0
  9 10  1  0
 10 11  1  0
 11 12  1  0
 12 13  1  0
 13 14  2  0
 14 15  1  0
 15 16  2  0
 16 17  1  0
 17 18  2  0
 18 19  1  0
 19 20  2  0
 20 21  1  0
 21 22  2  0
 16 23  1  0
 11 24  1  0
 24 25  1  0
 24 26  1  0
 26 27  1  0
 27 28  1  0
 28 29  1  0
 25  8  1  0
 23 13  1  0
 29 24  1  0
 22 17  1  0
  1 30  1  0
  1 31  1  0
  1 32  1  0
  2 33  1  0
  2 34  1  0
  6 35  1  0
  7 36  1  0
  8 37  1  0
  9 38  1  0
  9 39  1  0
 10 40  1  0
 10 41  1  0
 11 42  1  0
 12 43  1  0
 18 44  1  0
 19 45  1  0
 20 46  1  0
 21 47  1  0
 22 48  1  0
 23 49  1  0
 25 50  1  0
 25 51  1  0
 26 52  1  0
 27 53  1  0
 27 54  1  0
 28 55  1  0
 29 56  1  0
M  END
>  <Energy>  (244) 
57.855209984018167

>  <compound_id>  (244) 
280

>  <target_id>  (244) 
1

>  <reference_id>  (244) 
140

>  <inspiration_ids>  (244) 
[201, 140]

>  <energy_score>  (244) 
-76.91966753689164

>  <distance_score>  (244) 
1.4360015432082207

>  <path>  (244) 
/opt/xchem-fragalysis-2/maxwin/BulkDock/SCRATCH/505737/C280-P140/C280-P140.minimised.mol

>  <scratch_subdir>  (244) 
/opt/xchem-fragalysis-2/maxwin/BulkDock/SCRATCH/505737/C280-P140

>  <fragmenstein_runtime>  (244) 
9.582847595214844

>  <fragmenstein_outcome>  (244) 
too moved

>  <fragmenstein_mode>  (244) 
expansion

>  <fragmenstein_error>  (244) 


$$$$
C281-P201
     RDKit          3D

 61 64  0  0  0  0  0  0  0  0999 V2000
   -1.5692    7.0422   24.1673 C   0  0  0  0  0  0  0  0  0  0  0  0
   -1.7738    5.6105   23.7123 C   0  0  0  0  0  0  0  0  0  0  0  0
   -1.8862    4.7816   24.8708 O   0  0  0  0  0  0  0  0  0  0  0  0
   -2.0534    3.4722   24.6037 C   0  0  0  0  0  0  0  0  0  0  0  0
   -2.0128    2.9264   23.5048 O   0  0  0  0  0  0  0  0  0  0  0  0
   -2.1980    2.6929   25.8458 C   0  0  0  0  0  0  0  0  0  0  0  0
   -1.0553    2.3936   26.4824 C   0  0  0  0  0  0  0  0  0  0  0  0
   -0.7844    1.2742   27.4646 C   0  0  0  0  0  0  0  0  0  0  0  0
   -2.0015    0.4809   27.8903 C   0  0  0  0  0  0  0  0  0  0  0  0
   -1.7530   -0.4719   29.0513 C   0  0  0  0  0  0  0  0  0  0  0  0
   -0.2751   -0.7296   29.5217 C   0  0  0  0  0  0  0  0  0  0  0  0
    0.3844   -1.7156   28.5241 C   0  0  0  0  0  0  0  0  0  0  0  0
    1.7292   -2.3488   28.8811 C   0  0  0  0  0  0  0  0  0  0  0  0
    2.0249   -2.5557   30.3590 C   0  0  0  0  0  0  0  0  0  0  0  0
    0.8442   -2.9450   31.2404 C   0  0  0  0  0  0  0  0  0  0  0  0
    0.4003   -4.4110   31.1814 C   0  0  0  0  0  0  0  0  0  0  0  0
    0.8866   -5.3251   30.2336 C   0  0  0  0  0  0  0  0  0  0  0  0
    0.5305   -6.6771   30.2744 C   0  0  0  0  0  0  0  0  0  0  0  0
   -0.3318   -7.1505   31.2505 C   0  0  0  0  0  0  0  0  0  0  0  0
   -0.8110   -6.2731   32.2116 C   0  0  0  0  0  0  0  0  0  0  0  0
   -0.4460   -4.9229   32.1829 C   0  0  0  0  0  0  0  0  0  0  0  0
   -0.5573   -1.7932   31.0928 S   0  0  0  0  0  0  0  0  0  0  0  0
   -1.7557   -2.5933   30.8592 O   0  0  0  0  0  0  0  0  0  0  0  0
   -0.5714   -0.9783   32.2951 O   0  0  0  0  0  0  0  0  0  0  0  0
    0.4772    0.6864   29.6989 C   0  0  0  0  0  0  0  0  0  0  0  0
   -0.0294    1.7881   28.6764 C   0  0  0  0  0  0  0  0  0  0  0  0
    0.3867    1.3317   31.0148 N   0  0  0  0  0  0  0  0  0  0  0  0
    1.6224    1.0303   31.7145 C   0  0  0  0  0  0  0  0  0  0  0  0
    2.6267    0.8315   30.6879 N   0  0  0  0  0  0  0  0  0  0  0  0
    1.9173    0.7191   29.4582 N   0  0  0  0  0  0  0  0  0  0  0  0
   -0.6699    7.1249   24.7866 H   0  0  0  0  0  0  0  0  0  0  0  0
   -1.4708    7.7134   23.3097 H   0  0  0  0  0  0  0  0  0  0  0  0
   -2.4106    7.3771   24.7822 H   0  0  0  0  0  0  0  0  0  0  0  0
   -0.9173    5.2906   23.1081 H   0  0  0  0  0  0  0  0  0  0  0  0
   -2.6909    5.5376   23.1168 H   0  0  0  0  0  0  0  0  0  0  0  0
   -3.1415    2.1896   26.0060 H   0  0  0  0  0  0  0  0  0  0  0  0
   -0.1506    2.9149   26.1616 H   0  0  0  0  0  0  0  0  0  0  0  0
   -0.1010    0.6067   26.9399 H   0  0  0  0  0  0  0  0  0  0  0  0
   -2.4072   -0.0783   27.0412 H   0  0  0  0  0  0  0  0  0  0  0  0
   -2.8044    1.1662   28.1849 H   0  0  0  0  0  0  0  0  0  0  0  0
   -2.3228   -0.0988   29.9107 H   0  0  0  0  0  0  0  0  0  0  0  0
   -2.2427   -1.4200   28.7924 H   0  0  0  0  0  0  0  0  0  0  0  0
   -0.3115   -2.5501   28.3594 H   0  0  0  0  0  0  0  0  0  0  0  0
    0.5047   -1.2436   27.5500 H   0  0  0  0  0  0  0  0  0  0  0  0
    2.5548   -1.7837   28.4355 H   0  0  0  0  0  0  0  0  0  0  0  0
    1.7840   -3.3043   28.3479 H   0  0  0  0  0  0  0  0  0  0  0  0
    2.8382   -3.2859   30.4614 H   0  0  0  0  0  0  0  0  0  0  0  0
    2.4463   -1.6360   30.7623 H   0  0  0  0  0  0  0  0  0  0  0  0
    1.1959   -2.8030   32.2735 H   0  0  0  0  0  0  0  0  0  0  0  0
    1.5830   -5.0319   29.4583 H   0  0  0  0  0  0  0  0  0  0  0  0
    0.9480   -7.3780   29.5583 H   0  0  0  0  0  0  0  0  0  0  0  0
   -0.6085   -8.2009   31.2825 H   0  0  0  0  0  0  0  0  0  0  0  0
   -1.4648   -6.6350   33.0008 H   0  0  0  0  0  0  0  0  0  0  0  0
   -0.8392   -4.2684   32.9625 H   0  0  0  0  0  0  0  0  0  0  0  0
   -0.6569    2.5405   29.1614 H   0  0  0  0  0  0  0  0  0  0  0  0
    0.8216    2.3960   28.3260 H   0  0  0  0  0  0  0  0  0  0  0  0
    0.4229    2.3394   30.8650 H   0  0  0  0  0  0  0  0  0  0  0  0
    1.8972    1.8487   32.3893 H   0  0  0  0  0  0  0  0  0  0  0  0
    1.5473    0.1297   32.3270 H   0  0  0  0  0  0  0  0  0  0  0  0
    3.2318    1.6571   30.6716 H   0  0  0  0  0  0  0  0  0  0  0  0
    2.2782    0.0869   28.7532 H   0  0  0  0  0  0  0  0  0  0  0  0
  1  2  1  0
  2  3  1  0
  3  4  1  0
  4  5  2  0
  4  6  1  0
  6  7  2  3
  7  8  1  0
  8  9  1  0
  9 10  1  0
 10 11  1  0
 11 12  1  0
 12 13  1  0
 13 14  1  0
 14 15  1  0
 15 16  1  0
 16 17  2  0
 17 18  1  0
 18 19  2  0
 19 20  1  0
 20 21  2  0
 15 22  1  0
 22 23  2  0
 22 24  2  0
 11 25  1  0
 25 26  1  0
 25 27  1  0
 27 28  1  0
 28 29  1  0
 29 30  1  0
 26  8  1  0
 22 11  1  0
 30 25  1  0
 21 16  1  0
  1 31  1  0
  1 32  1  0
  1 33  1  0
  2 34  1  0
  2 35  1  0
  6 36  1  0
  7 37  1  0
  8 38  1  0
  9 39  1  0
  9 40  1  0
 10 41  1  0
 10 42  1  0
 12 43  1  0
 12 44  1  0
 13 45  1  0
 13 46  1  0
 14 47  1  0
 14 48  1  0
 15 49  1  0
 17 50  1  0
 18 51  1  0
 19 52  1  0
 20 53  1  0
 21 54  1  0
 26 55  1  0
 26 56  1  0
 27 57  1  0
 28 58  1  0
 28 59  1  0
 29 60  1  0
 30 61  1  0
M  END
>  <Energy>  (245) 
106.9137006952916

>  <compound_id>  (245) 
281

>  <target_id>  (245) 
1

>  <reference_id>  (245) 
201

>  <inspiration_ids>  (245) 
[201, 141]

>  <energy_score>  (245) 
-48.809118472641785

>  <distance_score>  (245) 
1.3335625629908527

>  <path>  (245) 
/opt/xchem-fragalysis-2/maxwin/BulkDock/SCRATCH/505737/C281-P201/C281-P201.minimised.mol

>  <scratch_subdir>  (245) 
/opt/xchem-fragalysis-2/maxwin/BulkDock/SCRATCH/505737/C281-P201

>  <fragmenstein_runtime>  (245) 
14.72978949546814

>  <fragmenstein_outcome>  (245) 
too moved

>  <fragmenstein_mode>  (245) 
expansion

>  <fragmenstein_error>  (245) 


$$$$
C281-P141
     RDKit          3D

 61 64  0  0  0  0  0  0  0  0999 V2000
   -3.0282    5.4309   22.5193 C   0  0  0  0  0  0  0  0  0  0  0  0
   -1.9731    4.7006   23.3269 C   0  0  0  0  0  0  0  0  0  0  0  0
   -2.5879    4.2142   24.5209 O   0  0  0  0  0  0  0  0  0  0  0  0
   -1.8362    3.3493   25.2441 C   0  0  0  0  0  0  0  0  0  0  0  0
   -0.7216    2.9508   24.9529 O   0  0  0  0  0  0  0  0  0  0  0  0
   -2.6357    2.9500   26.4205 C   0  0  0  0  0  0  0  0  0  0  0  0
   -2.3108    2.1100   27.4141 C   0  0  0  0  0  0  0  0  0  0  0  0
   -1.0638    1.3178   27.6603 C   0  0  0  0  0  0  0  0  0  0  0  0
   -1.3186   -0.1456   27.3285 C   0  0  0  0  0  0  0  0  0  0  0  0
   -1.4105   -1.0713   28.5202 C   0  0  0  0  0  0  0  0  0  0  0  0
   -0.0930   -1.0970   29.3659 C   0  0  0  0  0  0  0  0  0  0  0  0
    0.8542   -2.1825   28.8190 C   0  0  0  0  0  0  0  0  0  0  0  0
    2.1724   -2.3701   29.5632 C   0  0  0  0  0  0  0  0  0  0  0  0
    2.0610   -2.4778   31.0783 C   0  0  0  0  0  0  0  0  0  0  0  0
    0.6856   -2.8366   31.6411 C   0  0  0  0  0  0  0  0  0  0  0  0
    0.2893   -4.3149   31.5382 C   0  0  0  0  0  0  0  0  0  0  0  0
    0.7279   -5.1833   30.5276 C   0  0  0  0  0  0  0  0  0  0  0  0
    0.3729   -6.5360   30.5243 C   0  0  0  0  0  0  0  0  0  0  0  0
   -0.4213   -7.0634   31.5281 C   0  0  0  0  0  0  0  0  0  0  0  0
   -0.8474   -6.2324   32.5513 C   0  0  0  0  0  0  0  0  0  0  0  0
   -0.5082   -4.8743   32.5513 C   0  0  0  0  0  0  0  0  0  0  0  0
   -0.6466   -1.7385   31.0482 S   0  0  0  0  0  0  0  0  0  0  0  0
   -1.8377   -2.5576   30.8592 O   0  0  0  0  0  0  0  0  0  0  0  0
   -0.7694   -0.6187   31.9733 O   0  0  0  0  0  0  0  0  0  0  0  0
    0.5678    0.3569   29.4130 C   0  0  0  0  0  0  0  0  0  0  0  0
   -0.5342    1.4172   29.1088 C   0  0  0  0  0  0  0  0  0  0  0  0
    1.2629    0.6309   30.6640 N   0  0  0  0  0  0  0  0  0  0  0  0
    2.2876    1.5993   30.3672 C   0  0  0  0  0  0  0  0  0  0  0  0
    2.7615    1.1872   29.0654 N   0  0  0  0  0  0  0  0  0  0  0  0
    1.5997    0.6522   28.3885 N   0  0  0  0  0  0  0  0  0  0  0  0
   -3.8550    4.7577   22.2692 H   0  0  0  0  0  0  0  0  0  0  0  0
   -2.6048    5.8292   21.5931 H   0  0  0  0  0  0  0  0  0  0  0  0
   -3.4546    6.2569   23.0982 H   0  0  0  0  0  0  0  0  0  0  0  0
   -1.1627    5.3877   23.5931 H   0  0  0  0  0  0  0  0  0  0  0  0
   -1.5689    3.8686   22.7403 H   0  0  0  0  0  0  0  0  0  0  0  0
   -3.6261    3.3914   26.4435 H   0  0  0  0  0  0  0  0  0  0  0  0
   -3.0823    1.9357   28.1492 H   0  0  0  0  0  0  0  0  0  0  0  0
   -0.2879    1.6982   26.9881 H   0  0  0  0  0  0  0  0  0  0  0  0
   -0.4295   -0.4644   26.8119 H   0  0  0  0  0  0  0  0  0  0  0  0
   -2.1773   -0.2821   26.6632 H   0  0  0  0  0  0  0  0  0  0  0  0
   -2.2578   -0.7461   29.1342 H   0  0  0  0  0  0  0  0  0  0  0  0
   -1.6580   -2.0827   28.1804 H   0  0  0  0  0  0  0  0  0  0  0  0
    1.0970   -1.9758   27.7786 H   0  0  0  0  0  0  0  0  0  0  0  0
    0.3170   -3.1361   28.7806 H   0  0  0  0  0  0  0  0  0  0  0  0
    2.8761   -1.5680   29.3218 H   0  0  0  0  0  0  0  0  0  0  0  0
    2.6658   -3.2665   29.1681 H   0  0  0  0  0  0  0  0  0  0  0  0
    2.8131   -3.1912   31.4406 H   0  0  0  0  0  0  0  0  0  0  0  0
    2.3641   -1.5182   31.5117 H   0  0  0  0  0  0  0  0  0  0  0  0
    0.7423   -2.6171   32.7176 H   0  0  0  0  0  0  0  0  0  0  0  0
    1.3715   -4.8540   29.7233 H   0  0  0  0  0  0  0  0  0  0  0  0
    0.7449   -7.1985   29.7544 H   0  0  0  0  0  0  0  0  0  0  0  0
   -0.6910   -8.1157   31.5313 H   0  0  0  0  0  0  0  0  0  0  0  0
   -1.4507   -6.6331   33.3634 H   0  0  0  0  0  0  0  0  0  0  0  0
   -0.8759   -4.2544   33.3702 H   0  0  0  0  0  0  0  0  0  0  0  0
   -1.3549    1.2241   29.8029 H   0  0  0  0  0  0  0  0  0  0  0  0
   -0.1857    2.4424   29.2884 H   0  0  0  0  0  0  0  0  0  0  0  0
    0.6147    0.9830   31.3676 H   0  0  0  0  0  0  0  0  0  0  0  0
    1.8844    2.6185   30.3410 H   0  0  0  0  0  0  0  0  0  0  0  0
    3.0909    1.5676   31.1086 H   0  0  0  0  0  0  0  0  0  0  0  0
    3.1341    2.0001   28.5690 H   0  0  0  0  0  0  0  0  0  0  0  0
    1.8421   -0.1539   27.8172 H   0  0  0  0  0  0  0  0  0  0  0  0
  1  2  1  0
  2  3  1  0
  3  4  1  0
  4  5  2  0
  4  6  1  0
  6  7  2  3
  7  8  1  0
  8  9  1  0
  9 10  1  0
 10 11  1  0
 11 12  1  0
 12 13  1  0
 13 14  1  0
 14 15  1  0
 15 16  1  0
 16 17  2  0
 17 18  1  0
 18 19  2  0
 19 20  1  0
 20 21  2  0
 15 22  1  0
 22 23  2  0
 22 24  2  0
 11 25  1  0
 25 26  1  0
 25 27  1  0
 27 28  1  0
 28 29  1  0
 29 30  1  0
 26  8  1  0
 22 11  1  0
 30 25  1  0
 21 16  1  0
  1 31  1  0
  1 32  1  0
  1 33  1  0
  2 34  1  0
  2 35  1  0
  6 36  1  0
  7 37  1  0
  8 38  1  0
  9 39  1  0
  9 40  1  0
 10 41  1  0
 10 42  1  0
 12 43  1  0
 12 44  1  0
 13 45  1  0
 13 46  1  0
 14 47  1  0
 14 48  1  0
 15 49  1  0
 17 50  1  0
 18 51  1  0
 19 52  1  0
 20 53  1  0
 21 54  1  0
 26 55  1  0
 26 56  1  0
 27 57  1  0
 28 58  1  0
 28 59  1  0
 29 60  1  0
 30 61  1  0
M  END
>  <Energy>  (246) 
80.05049125463114

>  <compound_id>  (246) 
281

>  <target_id>  (246) 
1

>  <reference_id>  (246) 
141

>  <inspiration_ids>  (246) 
[201, 141]

>  <energy_score>  (246) 
-75.67232791330048

>  <distance_score>  (246) 
1.4412475484284037

>  <path>  (246) 
/opt/xchem-fragalysis-2/maxwin/BulkDock/SCRATCH/505737/C281-P141/C281-P141.minimised.mol

>  <scratch_subdir>  (246) 
/opt/xchem-fragalysis-2/maxwin/BulkDock/SCRATCH/505737/C281-P141

>  <fragmenstein_runtime>  (246) 
16.50889253616333

>  <fragmenstein_outcome>  (246) 
too moved

>  <fragmenstein_mode>  (246) 
expansion

>  <fragmenstein_error>  (246) 


$$$$
C281-P201
     RDKit          3D

 61 64  0  0  0  0  0  0  0  0999 V2000
   -0.5651    5.3569   23.1009 C   0  0  0  0  0  0  0  0  0  0  0  0
   -1.7234    5.4009   24.0804 C   0  0  0  0  0  0  0  0  0  0  0  0
   -1.3998    4.6654   25.2673 O   0  0  0  0  0  0  0  0  0  0  0  0
   -1.6720    3.3399   25.2237 C   0  0  0  0  0  0  0  0  0  0  0  0
   -2.0046    2.7017   24.2355 O   0  0  0  0  0  0  0  0  0  0  0  0
   -1.3959    2.7705   26.5662 C   0  0  0  0  0  0  0  0  0  0  0  0
   -1.6980    1.5033   26.9100 C   0  0  0  0  0  0  0  0  0  0  0  0
   -1.3997    0.8657   28.2628 C   0  0  0  0  0  0  0  0  0  0  0  0
   -0.1814    1.4847   28.9774 C   0  0  0  0  0  0  0  0  0  0  0  0
    0.2136    0.7419   30.2623 C   0  0  0  0  0  0  0  0  0  0  0  0
    0.4581   -0.8033   30.1372 C   0  0  0  0  0  0  0  0  0  0  0  0
    1.9554   -1.0720   30.4554 C   0  0  0  0  0  0  0  0  0  0  0  0
    2.3002   -1.0692   31.9258 C   0  0  0  0  0  0  0  0  0  0  0  0
    1.9256   -2.3956   32.5740 C   0  0  0  0  0  0  0  0  0  0  0  0
    0.5052   -2.9133   32.2873 C   0  0  0  0  0  0  0  0  0  0  0  0
    0.3587   -4.3111   31.6947 C   0  0  0  0  0  0  0  0  0  0  0  0
   -0.6937   -5.1405   32.1177 C   0  0  0  0  0  0  0  0  0  0  0  0
   -0.8545   -6.4390   31.6186 C   0  0  0  0  0  0  0  0  0  0  0  0
    0.0153   -6.9270   30.6539 C   0  0  0  0  0  0  0  0  0  0  0  0
    1.0696   -6.1282   30.2297 C   0  0  0  0  0  0  0  0  0  0  0  0
    1.2632   -4.8586   30.7838 C   0  0  0  0  0  0  0  0  0  0  0  0
   -0.5701   -1.6903   31.4838 S   0  0  0  0  0  0  0  0  0  0  0  0
   -0.8409   -0.7113   32.5342 O   0  0  0  0  0  0  0  0  0  0  0  0
   -1.7334   -2.3657   30.9334 O   0  0  0  0  0  0  0  0  0  0  0  0
    0.0535   -1.2922   28.7097 C   0  0  0  0  0  0  0  0  0  0  0  0
   -1.3392   -0.6857   28.3246 C   0  0  0  0  0  0  0  0  0  0  0  0
    0.1338   -2.7434   28.6048 N   0  0  0  0  0  0  0  0  0  0  0  0
    1.3841   -3.0907   27.9659 C   0  0  0  0  0  0  0  0  0  0  0  0
    1.9642   -1.8851   27.4340 N   0  0  0  0  0  0  0  0  0  0  0  0
    1.0490   -0.8150   27.7305 N   0  0  0  0  0  0  0  0  0  0  0  0
    0.3506    5.7291   23.5719 H   0  0  0  0  0  0  0  0  0  0  0  0
   -0.3616    4.3316   22.7758 H   0  0  0  0  0  0  0  0  0  0  0  0
   -0.7810    5.9654   22.2182 H   0  0  0  0  0  0  0  0  0  0  0  0
   -1.9092    6.4361   24.3849 H   0  0  0  0  0  0  0  0  0  0  0  0
   -2.6482    5.0288   23.6236 H   0  0  0  0  0  0  0  0  0  0  0  0
   -0.9284    3.4578   27.2620 H   0  0  0  0  0  0  0  0  0  0  0  0
   -2.2356    0.8809   26.1959 H   0  0  0  0  0  0  0  0  0  0  0  0
   -2.3146    1.0902   28.8147 H   0  0  0  0  0  0  0  0  0  0  0  0
    0.6841    1.5377   28.3062 H   0  0  0  0  0  0  0  0  0  0  0  0
   -0.3774    2.5322   29.2356 H   0  0  0  0  0  0  0  0  0  0  0  0
    1.1056    1.2414   30.6618 H   0  0  0  0  0  0  0  0  0  0  0  0
   -0.5550    0.9408   31.0046 H   0  0  0  0  0  0  0  0  0  0  0  0
    2.5772   -0.3204   29.9509 H   0  0  0  0  0  0  0  0  0  0  0  0
    2.2956   -2.0324   30.0779 H   0  0  0  0  0  0  0  0  0  0  0  0
    3.3814   -0.9257   32.0448 H   0  0  0  0  0  0  0  0  0  0  0  0
    1.8269   -0.2317   32.4496 H   0  0  0  0  0  0  0  0  0  0  0  0
    2.6826   -3.1472   32.3231 H   0  0  0  0  0  0  0  0  0  0  0  0
    2.0315   -2.2657   33.6602 H   0  0  0  0  0  0  0  0  0  0  0  0
    0.0453   -2.9972   33.2855 H   0  0  0  0  0  0  0  0  0  0  0  0
   -1.4014   -4.7781   32.8604 H   0  0  0  0  0  0  0  0  0  0  0  0
   -1.6691   -7.0619   31.9793 H   0  0  0  0  0  0  0  0  0  0  0  0
   -0.1164   -7.9292   30.2539 H   0  0  0  0  0  0  0  0  0  0  0  0
    1.7641   -6.4980   29.4824 H   0  0  0  0  0  0  0  0  0  0  0  0
    2.1505   -4.3078   30.4977 H   0  0  0  0  0  0  0  0  0  0  0  0
   -1.7374   -1.1041   27.4100 H   0  0  0  0  0  0  0  0  0  0  0  0
   -2.0795   -1.0000   29.0678 H   0  0  0  0  0  0  0  0  0  0  0  0
   -0.6418   -3.0617   28.0235 H   0  0  0  0  0  0  0  0  0  0  0  0
    1.2565   -3.8581   27.2036 H   0  0  0  0  0  0  0  0  0  0  0  0
    2.0953   -3.5343   28.6573 H   0  0  0  0  0  0  0  0  0  0  0  0
    2.8806   -1.7126   27.8489 H   0  0  0  0  0  0  0  0  0  0  0  0
    0.5326   -0.5676   26.8820 H   0  0  0  0  0  0  0  0  0  0  0  0
  1  2  1  0
  2  3  1  0
  3  4  1  0
  4  5  2  0
  4  6  1  0
  6  7  2  3
  7  8  1  0
  8  9  1  0
  9 10  1  0
 10 11  1  0
 11 12  1  0
 12 13  1  0
 13 14  1  0
 14 15  1  0
 15 16  1  0
 16 17  2  0
 17 18  1  0
 18 19  2  0
 19 20  1  0
 20 21  2  0
 15 22  1  0
 22 23  2  0
 22 24  2  0
 11 25  1  0
 25 26  1  0
 25 27  1  0
 27 28  1  0
 28 29  1  0
 29 30  1  0
 26  8  1  0
 22 11  1  0
 30 25  1  0
 21 16  1  0
  1 31  1  0
  1 32  1  0
  1 33  1  0
  2 34  1  0
  2 35  1  0
  6 36  1  0
  7 37  1  0
  8 38  1  0
  9 39  1  0
  9 40  1  0
 10 41  1  0
 10 42  1  0
 12 43  1  0
 12 44  1  0
 13 45  1  0
 13 46  1  0
 14 47  1  0
 14 48  1  0
 15 49  1  0
 17 50  1  0
 18 51  1  0
 19 52  1  0
 20 53  1  0
 21 54  1  0
 26 55  1  0
 26 56  1  0
 27 57  1  0
 28 58  1  0
 28 59  1  0
 29 60  1  0
 30 61  1  0
M  END
>  <Energy>  (247) 
87.829680328400912

>  <compound_id>  (247) 
281

>  <target_id>  (247) 
1

>  <reference_id>  (247) 
201

>  <inspiration_ids>  (247) 
[201, 142]

>  <energy_score>  (247) 
-17.79178625788876

>  <distance_score>  (247) 
1.530950920239997

>  <path>  (247) 
/opt/xchem-fragalysis-2/maxwin/BulkDock/SCRATCH/505737/C281-P201/C281-P201.minimised.mol

>  <scratch_subdir>  (247) 
/opt/xchem-fragalysis-2/maxwin/BulkDock/SCRATCH/505737/C281-P201

>  <fragmenstein_runtime>  (247) 
7.907800912857056

>  <fragmenstein_outcome>  (247) 
too moved

>  <fragmenstein_mode>  (247) 
expansion

>  <fragmenstein_error>  (247) 


$$$$
C281-P142
     RDKit          3D

 61 64  0  0  0  0  0  0  0  0999 V2000
   -1.7629    4.3850   22.8909 C   0  0  0  0  0  0  0  0  0  0  0  0
   -2.7546    4.4805   24.0327 C   0  0  0  0  0  0  0  0  0  0  0  0
   -2.1988    3.8991   25.2160 O   0  0  0  0  0  0  0  0  0  0  0  0
   -1.3927    4.7214   25.9275 C   0  0  0  0  0  0  0  0  0  0  0  0
   -1.0125    5.8371   25.5985 O   0  0  0  0  0  0  0  0  0  0  0  0
   -0.9409    4.0929   27.1830 C   0  0  0  0  0  0  0  0  0  0  0  0
   -1.1255    2.8089   27.5344 C   0  0  0  0  0  0  0  0  0  0  0  0
   -0.4988    2.2483   28.7991 C   0  0  0  0  0  0  0  0  0  0  0  0
    1.0042    1.9674   28.6132 C   0  0  0  0  0  0  0  0  0  0  0  0
    1.5282    1.0165   29.6962 C   0  0  0  0  0  0  0  0  0  0  0  0
    0.8403   -0.3924   29.7253 C   0  0  0  0  0  0  0  0  0  0  0  0
    1.7359   -1.4594   29.0507 C   0  0  0  0  0  0  0  0  0  0  0  0
    3.0351   -1.8184   29.7586 C   0  0  0  0  0  0  0  0  0  0  0  0
    2.9246   -2.2725   31.2109 C   0  0  0  0  0  0  0  0  0  0  0  0
    1.5068   -2.4480   31.7649 C   0  0  0  0  0  0  0  0  0  0  0  0
    0.7648   -3.7394   31.4189 C   0  0  0  0  0  0  0  0  0  0  0  0
   -0.2398   -4.2240   32.2779 C   0  0  0  0  0  0  0  0  0  0  0  0
   -0.7436   -5.5266   32.1557 C   0  0  0  0  0  0  0  0  0  0  0  0
   -0.2836   -6.3668   31.1528 C   0  0  0  0  0  0  0  0  0  0  0  0
    0.6804   -5.8926   30.2776 C   0  0  0  0  0  0  0  0  0  0  0  0
    1.1979   -4.6026   30.4034 C   0  0  0  0  0  0  0  0  0  0  0  0
    0.5970   -0.9068   31.5476 S   0  0  0  0  0  0  0  0  0  0  0  0
    1.3213    0.0503   32.3767 O   0  0  0  0  0  0  0  0  0  0  0  0
   -0.8001   -1.1172   31.8896 O   0  0  0  0  0  0  0  0  0  0  0  0
   -0.5417   -0.3055   29.0159 C   0  0  0  0  0  0  0  0  0  0  0  0
   -1.2314    1.0132   29.3856 C   0  0  0  0  0  0  0  0  0  0  0  0
   -1.3622   -1.4728   29.2844 N   0  0  0  0  0  0  0  0  0  0  0  0
   -1.9237   -1.8443   28.0129 C   0  0  0  0  0  0  0  0  0  0  0  0
   -1.7761   -0.6823   27.1807 N   0  0  0  0  0  0  0  0  0  0  0  0
   -0.4701   -0.2457   27.5559 N   0  0  0  0  0  0  0  0  0  0  0  0
   -0.8504    4.9500   23.1044 H   0  0  0  0  0  0  0  0  0  0  0  0
   -1.4592    3.3445   22.7377 H   0  0  0  0  0  0  0  0  0  0  0  0
   -2.2014    4.7782   21.9701 H   0  0  0  0  0  0  0  0  0  0  0  0
   -3.0589    5.5186   24.2059 H   0  0  0  0  0  0  0  0  0  0  0  0
   -3.6589    3.9153   23.7873 H   0  0  0  0  0  0  0  0  0  0  0  0
   -0.3723    4.7664   27.8164 H   0  0  0  0  0  0  0  0  0  0  0  0
   -1.6813    2.1316   26.8905 H   0  0  0  0  0  0  0  0  0  0  0  0
   -0.5589    3.0438   29.5519 H   0  0  0  0  0  0  0  0  0  0  0  0
    1.2403    1.5730   27.6179 H   0  0  0  0  0  0  0  0  0  0  0  0
    1.5550    2.9152   28.6821 H   0  0  0  0  0  0  0  0  0  0  0  0
    2.6129    0.9210   29.5848 H   0  0  0  0  0  0  0  0  0  0  0  0
    1.3800    1.5473   30.6423 H   0  0  0  0  0  0  0  0  0  0  0  0
    1.1611   -2.3723   28.8728 H   0  0  0  0  0  0  0  0  0  0  0  0
    2.0307   -1.1047   28.0543 H   0  0  0  0  0  0  0  0  0  0  0  0
    3.5258   -2.6133   29.1815 H   0  0  0  0  0  0  0  0  0  0  0  0
    3.7341   -0.9751   29.7077 H   0  0  0  0  0  0  0  0  0  0  0  0
    3.5087   -3.1908   31.3540 H   0  0  0  0  0  0  0  0  0  0  0  0
    3.4397   -1.5185   31.8228 H   0  0  0  0  0  0  0  0  0  0  0  0
    1.6409   -2.5055   32.8569 H   0  0  0  0  0  0  0  0  0  0  0  0
   -0.6019   -3.6065   33.1014 H   0  0  0  0  0  0  0  0  0  0  0  0
   -1.4731   -5.8857   32.8769 H   0  0  0  0  0  0  0  0  0  0  0  0
   -0.6583   -7.3828   31.0701 H   0  0  0  0  0  0  0  0  0  0  0  0
    1.0847   -6.5456   29.5190 H   0  0  0  0  0  0  0  0  0  0  0  0
    1.9962   -4.3270   29.7226 H   0  0  0  0  0  0  0  0  0  0  0  0
   -2.2893    1.0430   29.1094 H   0  0  0  0  0  0  0  0  0  0  0  0
   -1.2085    1.0636   30.4783 H   0  0  0  0  0  0  0  0  0  0  0  0
   -2.1117   -1.2000   29.9151 H   0  0  0  0  0  0  0  0  0  0  0  0
   -2.9620   -2.1110   28.0346 H   0  0  0  0  0  0  0  0  0  0  0  0
   -1.3305   -2.6920   27.6758 H   0  0  0  0  0  0  0  0  0  0  0  0
   -1.8214   -0.9942   26.1978 H   0  0  0  0  0  0  0  0  0  0  0  0
    0.2105   -0.9224   27.2147 H   0  0  0  0  0  0  0  0  0  0  0  0
  1  2  1  0
  2  3  1  0
  3  4  1  0
  4  5  2  0
  4  6  1  0
  6  7  2  3
  7  8  1  0
  8  9  1  0
  9 10  1  0
 10 11  1  0
 11 12  1  0
 12 13  1  0
 13 14  1  0
 14 15  1  0
 15 16  1  0
 16 17  2  0
 17 18  1  0
 18 19  2  0
 19 20  1  0
 20 21  2  0
 15 22  1  0
 22 23  2  0
 22 24  2  0
 11 25  1  0
 25 26  1  0
 25 27  1  0
 27 28  1  0
 28 29  1  0
 29 30  1  0
 26  8  1  0
 22 11  1  0
 30 25  1  0
 21 16  1  0
  1 31  1  0
  1 32  1  0
  1 33  1  0
  2 34  1  0
  2 35  1  0
  6 36  1  0
  7 37  1  0
  8 38  1  0
  9 39  1  0
  9 40  1  0
 10 41  1  0
 10 42  1  0
 12 43  1  0
 12 44  1  0
 13 45  1  0
 13 46  1  0
 14 47  1  0
 14 48  1  0
 15 49  1  0
 17 50  1  0
 18 51  1  0
 19 52  1  0
 20 53  1  0
 21 54  1  0
 26 55  1  0
 26 56  1  0
 27 57  1  0
 28 58  1  0
 28 59  1  0
 29 60  1  0
 30 61  1  0
M  END
>  <Energy>  (248) 
86.64407594896565

>  <compound_id>  (248) 
281

>  <target_id>  (248) 
1

>  <reference_id>  (248) 
142

>  <inspiration_ids>  (248) 
[201, 142]

>  <energy_score>  (248) 
-18.977390637320582

>  <distance_score>  (248) 
1.6621648221529055

>  <path>  (248) 
/opt/xchem-fragalysis-2/maxwin/BulkDock/SCRATCH/505737/C281-P142/C281-P142.minimised.mol

>  <scratch_subdir>  (248) 
/opt/xchem-fragalysis-2/maxwin/BulkDock/SCRATCH/505737/C281-P142

>  <fragmenstein_runtime>  (248) 
7.831100225448608

>  <fragmenstein_outcome>  (248) 
too moved

>  <fragmenstein_mode>  (248) 
expansion

>  <fragmenstein_error>  (248) 


$$$$
C284-P201
     RDKit          3D

 49 51  0  0  0  0  0  0  0  0999 V2000
    3.7087   -8.8198   39.1714 C   0  0  0  0  0  0  0  0  0  0  0  0
    2.5479   -7.8652   38.9548 C   0  0  0  0  0  0  0  0  0  0  0  0
    2.7477   -7.2542   37.6779 O   0  0  0  0  0  0  0  0  0  0  0  0
    1.7582   -6.4225   37.2710 C   0  0  0  0  0  0  0  0  0  0  0  0
    0.7674   -6.0798   37.8871 O   0  0  0  0  0  0  0  0  0  0  0  0
    2.0920   -6.0642   35.8781 C   0  0  0  0  0  0  0  0  0  0  0  0
    1.2101   -5.5247   35.0207 C   0  0  0  0  0  0  0  0  0  0  0  0
    1.5696   -5.4011   33.5530 C   0  0  0  0  0  0  0  0  0  0  0  0
    1.1621   -4.0815   32.8895 C   0  0  0  0  0  0  0  0  0  0  0  0
    0.8375   -4.2229   31.3797 C   0  0  0  0  0  0  0  0  0  0  0  0
    2.0657   -4.6831   30.5055 C   0  0  0  0  0  0  0  0  0  0  0  0
    1.7553   -4.8951   29.0802 N   0  0  0  0  0  0  0  0  0  0  0  0
    0.8687   -3.8146   28.6068 C   0  0  0  0  0  0  0  0  0  0  0  0
    0.7474   -2.5885   29.5284 C   0  0  0  0  0  0  0  0  0  0  0  0
    0.4062   -2.8765   30.9267 N   0  0  0  0  0  0  0  0  0  0  0  0
   -0.3724   -5.1750   31.2836 C   0  0  0  0  0  0  0  0  0  0  0  0
   -0.2174   -6.5170   32.0153 C   0  0  0  0  0  0  0  0  0  0  0  0
    1.0962   -6.6445   32.7982 C   0  0  0  0  0  0  0  0  0  0  0  0
   -1.3484   -6.6951   32.9048 N   0  0  0  0  0  0  0  0  0  0  0  0
   -1.5003   -8.1216   33.0100 C   0  0  0  0  0  0  0  0  0  0  0  0
   -1.2987   -8.5719   31.6459 N   0  0  0  0  0  0  0  0  0  0  0  0
   -0.3296   -7.6488   31.0717 N   0  0  0  0  0  0  0  0  0  0  0  0
    4.6604   -8.2781   39.1575 H   0  0  0  0  0  0  0  0  0  0  0  0
    3.6119   -9.3378   40.1296 H   0  0  0  0  0  0  0  0  0  0  0  0
    3.7554   -9.5638   38.3701 H   0  0  0  0  0  0  0  0  0  0  0  0
    1.6010   -8.4160   38.9627 H   0  0  0  0  0  0  0  0  0  0  0  0
    2.5387   -7.0972   39.7355 H   0  0  0  0  0  0  0  0  0  0  0  0
    3.0844   -6.3554   35.5504 H   0  0  0  0  0  0  0  0  0  0  0  0
    0.2069   -5.2627   35.3525 H   0  0  0  0  0  0  0  0  0  0  0  0
    2.6692   -5.4255   33.4934 H   0  0  0  0  0  0  0  0  0  0  0  0
    1.9660   -3.3465   33.0350 H   0  0  0  0  0  0  0  0  0  0  0  0
    0.2868   -3.6671   33.4112 H   0  0  0  0  0  0  0  0  0  0  0  0
    2.8556   -3.9220   30.5869 H   0  0  0  0  0  0  0  0  0  0  0  0
    2.5373   -5.5927   30.8664 H   0  0  0  0  0  0  0  0  0  0  0  0
    2.6326   -4.8295   28.5631 H   0  0  0  0  0  0  0  0  0  0  0  0
   -0.1373   -4.2098   28.4564 H   0  0  0  0  0  0  0  0  0  0  0  0
    1.2283   -3.4846   27.6278 H   0  0  0  0  0  0  0  0  0  0  0  0
    0.0039   -1.8963   29.1162 H   0  0  0  0  0  0  0  0  0  0  0  0
    1.7003   -2.0444   29.5201 H   0  0  0  0  0  0  0  0  0  0  0  0
   -0.5950   -2.7477   31.0674 H   0  0  0  0  0  0  0  0  0  0  0  0
   -1.2475   -4.6533   31.7024 H   0  0  0  0  0  0  0  0  0  0  0  0
   -0.6483   -5.3328   30.2381 H   0  0  0  0  0  0  0  0  0  0  0  0
    1.8818   -6.9066   32.0954 H   0  0  0  0  0  0  0  0  0  0  0  0
    1.0794   -7.5000   33.4828 H   0  0  0  0  0  0  0  0  0  0  0  0
   -1.1974   -6.2805   33.8189 H   0  0  0  0  0  0  0  0  0  0  0  0
   -2.4656   -8.4383   33.3965 H   0  0  0  0  0  0  0  0  0  0  0  0
   -0.7470   -8.5157   33.6898 H   0  0  0  0  0  0  0  0  0  0  0  0
   -0.9410   -9.5307   31.6689 H   0  0  0  0  0  0  0  0  0  0  0  0
   -0.7092   -7.2987   30.1904 H   0  0  0  0  0  0  0  0  0  0  0  0
  1  2  1  0
  2  3  1  0
  3  4  1  0
  4  5  2  0
  4  6  1  0
  6  7  2  3
  7  8  1  0
  8  9  1  0
  9 10  1  0
 10 11  1  0
 11 12  1  0
 12 13  1  0
 13 14  1  0
 14 15  1  0
 10 16  1  0
 16 17  1  0
 17 18  1  0
 17 19  1  0
 19 20  1  0
 20 21  1  0
 21 22  1  0
 18  8  1  0
 15 10  1  0
 22 17  1  0
  1 23  1  0
  1 24  1  0
  1 25  1  0
  2 26  1  0
  2 27  1  0
  6 28  1  0
  7 29  1  0
  8 30  1  0
  9 31  1  0
  9 32  1  0
 11 33  1  0
 11 34  1  0
 12 35  1  0
 13 36  1  0
 13 37  1  0
 14 38  1  0
 14 39  1  0
 15 40  1  0
 16 41  1  0
 16 42  1  0
 18 43  1  0
 18 44  1  0
 19 45  1  0
 20 46  1  0
 20 47  1  0
 21 48  1  0
 22 49  1  0
M  END
>  <Energy>  (249) 
84.674958164950823

>  <compound_id>  (249) 
284

>  <target_id>  (249) 
1

>  <reference_id>  (249) 
201

>  <inspiration_ids>  (249) 
[201, 148]

>  <energy_score>  (249) 
-40.6862152413008

>  <distance_score>  (249) 
2.0008139433544128

>  <path>  (249) 
/opt/xchem-fragalysis-2/maxwin/BulkDock/SCRATCH/505737/C284-P201/C284-P201.minimised.mol

>  <scratch_subdir>  (249) 
/opt/xchem-fragalysis-2/maxwin/BulkDock/SCRATCH/505737/C284-P201

>  <fragmenstein_runtime>  (249) 
3.822105884552002

>  <fragmenstein_outcome>  (249) 
too moved

>  <fragmenstein_mode>  (249) 
expansion

>  <fragmenstein_error>  (249) 


$$$$
C284-P148
     RDKit          3D

 49 51  0  0  0  0  0  0  0  0999 V2000
    3.8127   -8.9319   39.1445 C   0  0  0  0  0  0  0  0  0  0  0  0
    2.6490   -7.9707   38.9886 C   0  0  0  0  0  0  0  0  0  0  0  0
    2.8308   -7.2978   37.7386 O   0  0  0  0  0  0  0  0  0  0  0  0
    1.8213   -6.4751   37.3703 C   0  0  0  0  0  0  0  0  0  0  0  0
    0.8184   -6.1907   37.9979 O   0  0  0  0  0  0  0  0  0  0  0  0
    2.1255   -6.0564   35.9868 C   0  0  0  0  0  0  0  0  0  0  0  0
    1.2230   -5.4425   35.2034 C   0  0  0  0  0  0  0  0  0  0  0  0
    1.4900   -5.2811   33.7201 C   0  0  0  0  0  0  0  0  0  0  0  0
    0.9330   -3.9947   33.0954 C   0  0  0  0  0  0  0  0  0  0  0  0
    0.6494   -4.1328   31.5773 C   0  0  0  0  0  0  0  0  0  0  0  0
    1.9499   -4.4348   30.7378 C   0  0  0  0  0  0  0  0  0  0  0  0
    1.7349   -4.6388   29.3018 N   0  0  0  0  0  0  0  0  0  0  0  0
    0.7558   -3.6635   28.8001 C   0  0  0  0  0  0  0  0  0  0  0  0
    0.4052   -2.4969   29.7414 C   0  0  0  0  0  0  0  0  0  0  0  0
    0.0864   -2.8441   31.1294 N   0  0  0  0  0  0  0  0  0  0  0  0
   -0.4271   -5.2239   31.3771 C   0  0  0  0  0  0  0  0  0  0  0  0
   -0.3411   -6.4407   32.3104 C   0  0  0  0  0  0  0  0  0  0  0  0
    1.0247   -6.5435   32.9862 C   0  0  0  0  0  0  0  0  0  0  0  0
   -1.4041   -6.3968   33.2967 N   0  0  0  0  0  0  0  0  0  0  0  0
   -1.6180   -7.7733   33.6502 C   0  0  0  0  0  0  0  0  0  0  0  0
   -1.6447   -8.3980   32.3381 N   0  0  0  0  0  0  0  0  0  0  0  0
   -0.6271   -7.6826   31.5705 N   0  0  0  0  0  0  0  0  0  0  0  0
    4.7641   -8.3896   39.1390 H   0  0  0  0  0  0  0  0  0  0  0  0
    3.7316   -9.4920   40.0802 H   0  0  0  0  0  0  0  0  0  0  0  0
    3.8460   -9.6400   38.3104 H   0  0  0  0  0  0  0  0  0  0  0  0
    1.7029   -8.5231   38.9838 H   0  0  0  0  0  0  0  0  0  0  0  0
    2.6492   -7.2393   39.8037 H   0  0  0  0  0  0  0  0  0  0  0  0
    3.0870   -6.3755   35.5984 H   0  0  0  0  0  0  0  0  0  0  0  0
    0.2580   -5.1515   35.6134 H   0  0  0  0  0  0  0  0  0  0  0  0
    2.5825   -5.2352   33.5940 H   0  0  0  0  0  0  0  0  0  0  0  0
    1.6428   -3.1757   33.2762 H   0  0  0  0  0  0  0  0  0  0  0  0
    0.0067   -3.7033   33.6115 H   0  0  0  0  0  0  0  0  0  0  0  0
    2.6582   -3.6045   30.8686 H   0  0  0  0  0  0  0  0  0  0  0  0
    2.4819   -5.3015   31.1103 H   0  0  0  0  0  0  0  0  0  0  0  0
    1.3823   -5.5729   29.1084 H   0  0  0  0  0  0  0  0  0  0  0  0
   -0.1701   -4.1802   28.5255 H   0  0  0  0  0  0  0  0  0  0  0  0
    1.1777   -3.2322   27.8940 H   0  0  0  0  0  0  0  0  0  0  0  0
   -0.4281   -1.9265   29.3144 H   0  0  0  0  0  0  0  0  0  0  0  0
    1.2571   -1.8054   29.7672 H   0  0  0  0  0  0  0  0  0  0  0  0
   -0.9141   -2.7690   31.2996 H   0  0  0  0  0  0  0  0  0  0  0  0
   -1.4167   -4.7684   31.5065 H   0  0  0  0  0  0  0  0  0  0  0  0
   -0.4205   -5.5502   30.3343 H   0  0  0  0  0  0  0  0  0  0  0  0
    1.0811   -7.4058   33.6591 H   0  0  0  0  0  0  0  0  0  0  0  0
    1.7521   -6.7566   32.2092 H   0  0  0  0  0  0  0  0  0  0  0  0
   -1.1710   -5.8427   34.1141 H   0  0  0  0  0  0  0  0  0  0  0  0
   -0.8158   -8.1646   34.2821 H   0  0  0  0  0  0  0  0  0  0  0  0
   -2.5507   -7.9283   34.1961 H   0  0  0  0  0  0  0  0  0  0  0  0
   -2.5893   -8.2109   31.9894 H   0  0  0  0  0  0  0  0  0  0  0  0
   -0.9486   -7.4728   30.6284 H   0  0  0  0  0  0  0  0  0  0  0  0
  1  2  1  0
  2  3  1  0
  3  4  1  0
  4  5  2  0
  4  6  1  0
  6  7  2  3
  7  8  1  0
  8  9  1  0
  9 10  1  0
 10 11  1  0
 11 12  1  0
 12 13  1  0
 13 14  1  0
 14 15  1  0
 10 16  1  0
 16 17  1  0
 17 18  1  0
 17 19  1  0
 19 20  1  0
 20 21  1  0
 21 22  1  0
 18  8  1  0
 15 10  1  0
 22 17  1  0
  1 23  1  0
  1 24  1  0
  1 25  1  0
  2 26  1  0
  2 27  1  0
  6 28  1  0
  7 29  1  0
  8 30  1  0
  9 31  1  0
  9 32  1  0
 11 33  1  0
 11 34  1  0
 12 35  1  0
 13 36  1  0
 13 37  1  0
 14 38  1  0
 14 39  1  0
 15 40  1  0
 16 41  1  0
 16 42  1  0
 18 43  1  0
 18 44  1  0
 19 45  1  0
 20 46  1  0
 20 47  1  0
 21 48  1  0
 22 49  1  0
M  END
>  <Energy>  (250) 
85.378248820471356

>  <compound_id>  (250) 
284

>  <target_id>  (250) 
1

>  <reference_id>  (250) 
148

>  <inspiration_ids>  (250) 
[201, 148]

>  <energy_score>  (250) 
-39.98292458577754

>  <distance_score>  (250) 
2.0113933503258243

>  <path>  (250) 
/opt/xchem-fragalysis-2/maxwin/BulkDock/SCRATCH/505737/C284-P148/C284-P148.minimised.mol

>  <scratch_subdir>  (250) 
/opt/xchem-fragalysis-2/maxwin/BulkDock/SCRATCH/505737/C284-P148

>  <fragmenstein_runtime>  (250) 
4.978739976882935

>  <fragmenstein_outcome>  (250) 
too moved

>  <fragmenstein_mode>  (250) 
expansion

>  <fragmenstein_error>  (250) 


$$$$
C287-P201
     RDKit          3D

 66 70  0  0  0  0  0  0  0  0999 V2000
    2.8375   -5.2799   32.8595 C   0  0  0  0  0  0  0  0  0  0  0  0
    2.4027   -4.5971   33.9193 C   0  0  0  0  0  0  0  0  0  0  0  0
    1.6549   -5.2244   35.0557 C   0  0  0  0  0  0  0  0  0  0  0  0
    0.5923   -4.3975   35.6021 N   0  0  0  0  0  0  0  0  0  0  0  0
   -0.3638   -3.6789   34.9619 C   0  0  0  0  0  0  0  0  0  0  0  0
   -0.6890   -3.7922   33.2993 S   0  0  0  0  0  0  0  0  0  0  0  0
   -0.6513   -5.5632   32.9780 C   0  0  0  0  0  0  0  0  0  0  0  0
   -1.1312   -6.5105   33.8955 C   0  0  0  0  0  0  0  0  0  0  0  0
   -1.4124   -7.8179   33.5109 C   0  0  0  0  0  0  0  0  0  0  0  0
   -1.3421   -8.1888   32.1774 C   0  0  0  0  0  0  0  0  0  0  0  0
   -0.8931   -7.2405   31.2946 C   0  0  0  0  0  0  0  0  0  0  0  0
   -0.3513   -6.0159   31.7080 C   0  0  0  0  0  0  0  0  0  0  0  0
    0.1677   -5.3450   30.4574 C   0  0  0  0  0  0  0  0  0  0  0  0
    0.2266   -3.8120   30.4439 C   0  0  0  0  0  0  0  0  0  0  0  0
    0.8152   -3.1689   29.2006 C   0  0  0  0  0  0  0  0  0  0  0  0
    2.1736   -3.7792   28.8688 C   0  0  0  0  0  0  0  0  0  0  0  0
    1.9857   -5.2647   28.6187 C   0  0  0  0  0  0  0  0  0  0  0  0
    3.0382   -6.0662   27.9044 C   0  0  0  0  0  0  0  0  0  0  0  0
    4.3782   -6.0329   27.9511 C   0  0  0  0  0  0  0  0  0  0  0  0
    5.2048   -5.2222   28.8509 C   0  0  0  0  0  0  0  0  0  0  0  0
    5.8611   -5.7212   29.7502 O   0  0  0  0  0  0  0  0  0  0  0  0
    5.1701   -3.9260   28.4786 O   0  0  0  0  0  0  0  0  0  0  0  0
    6.0059   -3.0553   29.2515 C   0  0  0  0  0  0  0  0  0  0  0  0
    5.3510   -2.7216   30.5782 C   0  0  0  0  0  0  0  0  0  0  0  0
    1.4843   -5.9589   29.8906 C   0  0  0  0  0  0  0  0  0  0  0  0
   -0.8536   -5.8328   29.5564 N   0  0  0  0  0  0  0  0  0  0  0  0
   -1.0919   -7.2064   29.8880 N   0  0  0  0  0  0  0  0  0  0  0  0
   -1.0210   -2.9311   35.8163 N   0  0  0  0  0  0  0  0  0  0  0  0
   -0.6505   -3.3318   37.0700 N   0  0  0  0  0  0  0  0  0  0  0  0
    0.2514   -4.2779   36.9260 C   0  0  0  0  0  0  0  0  0  0  0  0
    0.7063   -5.1852   37.9377 C   0  0  0  0  0  0  0  0  0  0  0  0
    1.9985   -5.1282   38.4424 C   0  0  0  0  0  0  0  0  0  0  0  0
    2.4412   -6.1593   39.2582 C   0  0  0  0  0  0  0  0  0  0  0  0
    1.5607   -7.1835   39.5711 C   0  0  0  0  0  0  0  0  0  0  0  0
    0.2862   -7.2362   39.1365 N   0  0  0  0  0  0  0  0  0  0  0  0
   -0.1126   -6.2357   38.3241 C   0  0  0  0  0  0  0  0  0  0  0  0
    3.4227   -4.7835   32.0935 H   0  0  0  0  0  0  0  0  0  0  0  0
    2.6449   -6.3420   32.7670 H   0  0  0  0  0  0  0  0  0  0  0  0
    2.6404   -3.5370   33.9981 H   0  0  0  0  0  0  0  0  0  0  0  0
    2.3982   -5.3621   35.8465 H   0  0  0  0  0  0  0  0  0  0  0  0
    1.2612   -6.2174   34.8325 H   0  0  0  0  0  0  0  0  0  0  0  0
   -1.3865   -6.2255   34.9139 H   0  0  0  0  0  0  0  0  0  0  0  0
   -1.8386   -8.4798   34.2539 H   0  0  0  0  0  0  0  0  0  0  0  0
   -1.7124   -9.1512   31.8557 H   0  0  0  0  0  0  0  0  0  0  0  0
    0.8800   -3.4756   31.2557 H   0  0  0  0  0  0  0  0  0  0  0  0
   -0.7694   -3.3772   30.5924 H   0  0  0  0  0  0  0  0  0  0  0  0
    0.1266   -3.2798   28.3554 H   0  0  0  0  0  0  0  0  0  0  0  0
    0.9326   -2.0916   29.3668 H   0  0  0  0  0  0  0  0  0  0  0  0
    2.5858   -3.2811   27.9840 H   0  0  0  0  0  0  0  0  0  0  0  0
    2.8587   -3.6156   29.7026 H   0  0  0  0  0  0  0  0  0  0  0  0
    1.2030   -5.2502   27.8774 H   0  0  0  0  0  0  0  0  0  0  0  0
    2.6253   -6.7866   27.1962 H   0  0  0  0  0  0  0  0  0  0  0  0
    4.9625   -6.7132   27.3375 H   0  0  0  0  0  0  0  0  0  0  0  0
    6.1460   -2.1395   28.6680 H   0  0  0  0  0  0  0  0  0  0  0  0
    6.9978   -3.4997   29.3958 H   0  0  0  0  0  0  0  0  0  0  0  0
    4.3980   -2.2078   30.4237 H   0  0  0  0  0  0  0  0  0  0  0  0
    5.1532   -3.6184   31.1689 H   0  0  0  0  0  0  0  0  0  0  0  0
    5.9980   -2.0620   31.1645 H   0  0  0  0  0  0  0  0  0  0  0  0
    1.3748   -7.0319   29.6868 H   0  0  0  0  0  0  0  0  0  0  0  0
    2.2773   -5.9011   30.6262 H   0  0  0  0  0  0  0  0  0  0  0  0
   -0.7775   -5.5696   28.5763 H   0  0  0  0  0  0  0  0  0  0  0  0
   -2.0775   -7.3935   29.7021 H   0  0  0  0  0  0  0  0  0  0  0  0
    2.6688   -4.3135   38.1828 H   0  0  0  0  0  0  0  0  0  0  0  0
    3.4496   -6.1632   39.6578 H   0  0  0  0  0  0  0  0  0  0  0  0
    1.8625   -8.0085   40.2106 H   0  0  0  0  0  0  0  0  0  0  0  0
   -1.1306   -6.3099   37.9597 H   0  0  0  0  0  0  0  0  0  0  0  0
  1  2  2  0
  2  3  1  0
  3  4  1  0
  4  5  1  0
  5  6  1  0
  6  7  1  0
  7  8  2  0
  8  9  1  0
  9 10  2  0
 10 11  1  0
 11 12  2  0
 12 13  1  0
 13 14  1  0
 14 15  1  0
 15 16  1  0
 16 17  1  0
 17 18  1  0
 18 19  2  3
 19 20  1  0
 20 21  2  0
 20 22  1  0
 22 23  1  0
 23 24  1  0
 17 25  1  0
 13 26  1  0
 26 27  1  0
  5 28  2  0
 28 29  1  0
 29 30  2  0
 30 31  1  0
 31 32  2  0
 32 33  1  0
 33 34  2  0
 34 35  1  0
 35 36  2  0
 30  4  1  0
 36 31  1  0
 12  7  1  0
 25 13  1  0
 27 11  1  0
  1 37  1  0
  1 38  1  0
  2 39  1  0
  3 40  1  0
  3 41  1  0
  8 42  1  0
  9 43  1  0
 10 44  1  0
 14 45  1  0
 14 46  1  0
 15 47  1  0
 15 48  1  0
 16 49  1  0
 16 50  1  0
 17 51  1  0
 18 52  1  0
 19 53  1  0
 23 54  1  0
 23 55  1  0
 24 56  1  0
 24 57  1  0
 24 58  1  0
 25 59  1  0
 25 60  1  0
 26 61  1  0
 27 62  1  0
 32 63  1  0
 33 64  1  0
 34 65  1  0
 36 66  1  0
M  END
>  <Energy>  (251) 
158.48860223049613

>  <compound_id>  (251) 
287

>  <target_id>  (251) 
1

>  <reference_id>  (251) 
201

>  <inspiration_ids>  (251) 
[201, 153]

>  <energy_score>  (251) 
-25.126135653366788

>  <distance_score>  (251) 
2.2724496939841803

>  <path>  (251) 
/opt/xchem-fragalysis-2/maxwin/BulkDock/SCRATCH/505737/C287-P201/C287-P201.minimised.mol

>  <scratch_subdir>  (251) 
/opt/xchem-fragalysis-2/maxwin/BulkDock/SCRATCH/505737/C287-P201

>  <fragmenstein_runtime>  (251) 
11.0716552734375

>  <fragmenstein_outcome>  (251) 
too moved

>  <fragmenstein_mode>  (251) 
expansion

>  <fragmenstein_error>  (251) 


$$$$
C287-P153
     RDKit          3D

 66 70  0  0  0  0  0  0  0  0999 V2000
    3.3585   -4.7192   33.2013 C   0  0  0  0  0  0  0  0  0  0  0  0
    2.2102   -4.3254   33.7615 C   0  0  0  0  0  0  0  0  0  0  0  0
    1.5676   -5.0425   34.9120 C   0  0  0  0  0  0  0  0  0  0  0  0
    0.5534   -4.2667   35.6145 N   0  0  0  0  0  0  0  0  0  0  0  0
   -0.5003   -3.5638   35.1133 C   0  0  0  0  0  0  0  0  0  0  0  0
   -1.0501   -3.6792   33.5070 S   0  0  0  0  0  0  0  0  0  0  0  0
   -0.9789   -5.4470   33.2312 C   0  0  0  0  0  0  0  0  0  0  0  0
   -1.3641   -6.3922   34.1993 C   0  0  0  0  0  0  0  0  0  0  0  0
   -1.4515   -7.7502   33.9028 C   0  0  0  0  0  0  0  0  0  0  0  0
   -1.1840   -8.1996   32.6173 C   0  0  0  0  0  0  0  0  0  0  0  0
   -0.7361   -7.2983   31.6939 C   0  0  0  0  0  0  0  0  0  0  0  0
   -0.5992   -5.9335   31.9993 C   0  0  0  0  0  0  0  0  0  0  0  0
   -0.1636   -5.2650   30.7201 C   0  0  0  0  0  0  0  0  0  0  0  0
   -0.6577   -3.8273   30.4460 C   0  0  0  0  0  0  0  0  0  0  0  0
   -0.2423   -3.2875   29.0861 C   0  0  0  0  0  0  0  0  0  0  0  0
    1.2699   -3.3456   28.9229 C   0  0  0  0  0  0  0  0  0  0  0  0
    1.7823   -4.7621   29.1643 C   0  0  0  0  0  0  0  0  0  0  0  0
    3.2527   -4.8464   29.0060 C   0  0  0  0  0  0  0  0  0  0  0  0
    3.9275   -5.6179   28.1391 C   0  0  0  0  0  0  0  0  0  0  0  0
    5.3936   -5.6461   28.2717 C   0  0  0  0  0  0  0  0  0  0  0  0
    6.0213   -6.6836   28.3895 O   0  0  0  0  0  0  0  0  0  0  0  0
    5.8567   -4.3771   28.3306 O   0  0  0  0  0  0  0  0  0  0  0  0
    6.9854   -4.1793   29.1852 C   0  0  0  0  0  0  0  0  0  0  0  0
    6.4454   -3.8465   30.5689 C   0  0  0  0  0  0  0  0  0  0  0  0
    1.3595   -5.2195   30.5611 C   0  0  0  0  0  0  0  0  0  0  0  0
   -0.6613   -6.2781   29.7693 N   0  0  0  0  0  0  0  0  0  0  0  0
   -0.4025   -7.5217   30.3517 N   0  0  0  0  0  0  0  0  0  0  0  0
   -1.0971   -2.8892   36.0645 N   0  0  0  0  0  0  0  0  0  0  0  0
   -0.5892   -3.3394   37.2488 N   0  0  0  0  0  0  0  0  0  0  0  0
    0.3173   -4.2517   36.9681 C   0  0  0  0  0  0  0  0  0  0  0  0
    0.8166   -5.2415   37.8785 C   0  0  0  0  0  0  0  0  0  0  0  0
    2.1587   -5.3163   38.2257 C   0  0  0  0  0  0  0  0  0  0  0  0
    2.5977   -6.4044   38.9667 C   0  0  0  0  0  0  0  0  0  0  0  0
    1.6695   -7.3531   39.3673 C   0  0  0  0  0  0  0  0  0  0  0  0
    0.3530   -7.2771   39.0908 N   0  0  0  0  0  0  0  0  0  0  0  0
   -0.0460   -6.2213   38.3517 C   0  0  0  0  0  0  0  0  0  0  0  0
    3.8200   -4.1373   32.4094 H   0  0  0  0  0  0  0  0  0  0  0  0
    3.8986   -5.5836   33.5696 H   0  0  0  0  0  0  0  0  0  0  0  0
    1.7717   -3.3992   33.3971 H   0  0  0  0  0  0  0  0  0  0  0  0
    2.3625   -5.2610   35.6302 H   0  0  0  0  0  0  0  0  0  0  0  0
    1.1482   -6.0038   34.6182 H   0  0  0  0  0  0  0  0  0  0  0  0
   -1.6628   -6.0704   35.1960 H   0  0  0  0  0  0  0  0  0  0  0  0
   -1.8021   -8.4317   34.6718 H   0  0  0  0  0  0  0  0  0  0  0  0
   -1.3726   -9.2196   32.3282 H   0  0  0  0  0  0  0  0  0  0  0  0
   -0.1871   -3.1379   31.1549 H   0  0  0  0  0  0  0  0  0  0  0  0
   -1.7324   -3.6976   30.5856 H   0  0  0  0  0  0  0  0  0  0  0  0
   -0.7202   -3.8563   28.2888 H   0  0  0  0  0  0  0  0  0  0  0  0
   -0.5801   -2.2501   28.9812 H   0  0  0  0  0  0  0  0  0  0  0  0
    1.5550   -2.9942   27.9286 H   0  0  0  0  0  0  0  0  0  0  0  0
    1.7360   -2.6465   29.6309 H   0  0  0  0  0  0  0  0  0  0  0  0
    1.3816   -5.4157   28.4097 H   0  0  0  0  0  0  0  0  0  0  0  0
    3.8051   -4.2125   29.6983 H   0  0  0  0  0  0  0  0  0  0  0  0
    3.4726   -6.3124   27.4495 H   0  0  0  0  0  0  0  0  0  0  0  0
    7.5577   -3.3346   28.7896 H   0  0  0  0  0  0  0  0  0  0  0  0
    7.6472   -5.0518   29.2113 H   0  0  0  0  0  0  0  0  0  0  0  0
    7.2657   -3.6077   31.2520 H   0  0  0  0  0  0  0  0  0  0  0  0
    5.7634   -2.9911   30.5280 H   0  0  0  0  0  0  0  0  0  0  0  0
    5.8886   -4.6923   30.9838 H   0  0  0  0  0  0  0  0  0  0  0  0
    1.7491   -4.4886   31.2673 H   0  0  0  0  0  0  0  0  0  0  0  0
    1.8259   -6.1639   30.8279 H   0  0  0  0  0  0  0  0  0  0  0  0
   -0.4241   -6.0967   28.8017 H   0  0  0  0  0  0  0  0  0  0  0  0
   -0.7851   -8.3715   29.9495 H   0  0  0  0  0  0  0  0  0  0  0  0
    2.8662   -4.5544   37.9108 H   0  0  0  0  0  0  0  0  0  0  0  0
    3.6410   -6.5089   39.2444 H   0  0  0  0  0  0  0  0  0  0  0  0
    1.9664   -8.2202   39.9510 H   0  0  0  0  0  0  0  0  0  0  0  0
   -1.1080   -6.1862   38.1325 H   0  0  0  0  0  0  0  0  0  0  0  0
  1  2  2  0
  2  3  1  0
  3  4  1  0
  4  5  1  0
  5  6  1  0
  6  7  1  0
  7  8  2  0
  8  9  1  0
  9 10  2  0
 10 11  1  0
 11 12  2  0
 12 13  1  0
 13 14  1  0
 14 15  1  0
 15 16  1  0
 16 17  1  0
 17 18  1  0
 18 19  2  3
 19 20  1  0
 20 21  2  0
 20 22  1  0
 22 23  1  0
 23 24  1  0
 17 25  1  0
 13 26  1  0
 26 27  1  0
  5 28  2  0
 28 29  1  0
 29 30  2  0
 30 31  1  0
 31 32  2  0
 32 33  1  0
 33 34  2  0
 34 35  1  0
 35 36  2  0
 30  4  1  0
 36 31  1  0
 12  7  1  0
 25 13  1  0
 27 11  1  0
  1 37  1  0
  1 38  1  0
  2 39  1  0
  3 40  1  0
  3 41  1  0
  8 42  1  0
  9 43  1  0
 10 44  1  0
 14 45  1  0
 14 46  1  0
 15 47  1  0
 15 48  1  0
 16 49  1  0
 16 50  1  0
 17 51  1  0
 18 52  1  0
 19 53  1  0
 23 54  1  0
 23 55  1  0
 24 56  1  0
 24 57  1  0
 24 58  1  0
 25 59  1  0
 25 60  1  0
 26 61  1  0
 27 62  1  0
 32 63  1  0
 33 64  1  0
 34 65  1  0
 36 66  1  0
M  END
>  <Energy>  (252) 
145.66565008254074

>  <compound_id>  (252) 
287

>  <target_id>  (252) 
1

>  <reference_id>  (252) 
153

>  <inspiration_ids>  (252) 
[201, 153]

>  <energy_score>  (252) 
-37.949087801320104

>  <distance_score>  (252) 
2.399494424208042

>  <path>  (252) 
/opt/xchem-fragalysis-2/maxwin/BulkDock/SCRATCH/505737/C287-P153/C287-P153.minimised.mol

>  <scratch_subdir>  (252) 
/opt/xchem-fragalysis-2/maxwin/BulkDock/SCRATCH/505737/C287-P153

>  <fragmenstein_runtime>  (252) 
9.639798879623413

>  <fragmenstein_outcome>  (252) 
too moved

>  <fragmenstein_mode>  (252) 
expansion

>  <fragmenstein_error>  (252) 


$$$$
C290-P201
     RDKit          3D

 51 54  0  0  0  0  0  0  0  0999 V2000
    5.6401   -3.9997   29.1470 C   0  0  0  0  0  0  0  0  0  0  0  0
    5.8760   -4.2987   27.6637 C   0  0  0  0  0  0  0  0  0  0  0  0
    4.6232   -4.2704   26.9695 O   0  0  0  0  0  0  0  0  0  0  0  0
    3.9047   -5.4022   27.1471 C   0  0  0  0  0  0  0  0  0  0  0  0
    4.2470   -6.5482   26.9142 O   0  0  0  0  0  0  0  0  0  0  0  0
    2.6369   -4.9987   27.7844 C   0  0  0  0  0  0  0  0  0  0  0  0
    2.1640   -5.8760   28.6825 C   0  0  0  0  0  0  0  0  0  0  0  0
    1.3778   -5.5237   29.9124 C   0  0  0  0  0  0  0  0  0  0  0  0
    0.8061   -4.0975   29.9630 C   0  0  0  0  0  0  0  0  0  0  0  0
   -0.1868   -3.8844   31.1103 C   0  0  0  0  0  0  0  0  0  0  0  0
   -0.0779   -4.9180   32.2341 C   0  0  0  0  0  0  0  0  0  0  0  0
    1.5558   -4.8545   33.1257 S   0  0  0  0  0  0  0  0  0  0  0  0
    2.1172   -3.2246   33.0510 C   0  0  0  0  0  0  0  0  0  0  0  0
    1.3980   -2.2857   33.5608 N   0  0  0  0  0  0  0  0  0  0  0  0
    1.9152   -1.0019   33.5985 C   0  0  0  0  0  0  0  0  0  0  0  0
    1.2611   -0.0487   34.0032 O   0  0  0  0  0  0  0  0  0  0  0  0
    3.2831   -0.9040   33.1276 C   0  0  0  0  0  0  0  0  0  0  0  0
    4.2089    0.5187   33.1634 S   0  0  0  0  0  0  0  0  0  0  0  0
    5.5664   -0.2933   32.4878 C   0  0  0  0  0  0  0  0  0  0  0  0
    5.3051   -1.6263   32.2350 C   0  0  0  0  0  0  0  0  0  0  0  0
    3.9798   -1.9563   32.5981 C   0  0  0  0  0  0  0  0  0  0  0  0
    3.3699   -3.1459   32.4949 N   0  0  0  0  0  0  0  0  0  0  0  0
   -0.2896   -6.3899   31.6608 C   0  0  0  0  0  0  0  0  0  0  0  0
    0.2832   -6.5275   30.2305 C   0  0  0  0  0  0  0  0  0  0  0  0
    0.2890   -7.3802   32.5863 N   0  0  0  0  0  0  0  0  0  0  0  0
   -0.8486   -7.7399   33.4113 C   0  0  0  0  0  0  0  0  0  0  0  0
   -1.7181   -8.0888   32.3197 N   0  0  0  0  0  0  0  0  0  0  0  0
   -1.6837   -6.8649   31.5496 N   0  0  0  0  0  0  0  0  0  0  0  0
    5.0725   -4.8027   29.6275 H   0  0  0  0  0  0  0  0  0  0  0  0
    6.5945   -3.8949   29.6706 H   0  0  0  0  0  0  0  0  0  0  0  0
    5.0637   -3.0767   29.2663 H   0  0  0  0  0  0  0  0  0  0  0  0
    6.5078   -3.5194   27.2256 H   0  0  0  0  0  0  0  0  0  0  0  0
    6.3880   -5.2581   27.5268 H   0  0  0  0  0  0  0  0  0  0  0  0
    2.3793   -3.9470   27.7667 H   0  0  0  0  0  0  0  0  0  0  0  0
    2.5575   -6.8881   28.6753 H   0  0  0  0  0  0  0  0  0  0  0  0
    2.1419   -5.6179   30.6899 H   0  0  0  0  0  0  0  0  0  0  0  0
    0.2976   -3.8465   29.0230 H   0  0  0  0  0  0  0  0  0  0  0  0
    1.6302   -3.3798   30.0619 H   0  0  0  0  0  0  0  0  0  0  0  0
   -1.1989   -3.9270   30.7021 H   0  0  0  0  0  0  0  0  0  0  0  0
   -0.0999   -2.8603   31.4879 H   0  0  0  0  0  0  0  0  0  0  0  0
   -0.8388   -4.7056   32.9936 H   0  0  0  0  0  0  0  0  0  0  0  0
    6.4851    0.2509   32.3135 H   0  0  0  0  0  0  0  0  0  0  0  0
    6.0369   -2.3024   31.8134 H   0  0  0  0  0  0  0  0  0  0  0  0
    3.8377   -4.0163   32.2799 H   0  0  0  0  0  0  0  0  0  0  0  0
    0.5994   -7.5579   30.0209 H   0  0  0  0  0  0  0  0  0  0  0  0
   -0.5298   -6.3118   29.5339 H   0  0  0  0  0  0  0  0  0  0  0  0
    0.4141   -8.2134   32.0238 H   0  0  0  0  0  0  0  0  0  0  0  0
   -1.2187   -6.9110   34.0298 H   0  0  0  0  0  0  0  0  0  0  0  0
   -0.6267   -8.5542   34.0845 H   0  0  0  0  0  0  0  0  0  0  0  0
   -2.6333   -8.3763   32.6728 H   0  0  0  0  0  0  0  0  0  0  0  0
   -1.9558   -7.0495   30.5866 H   0  0  0  0  0  0  0  0  0  0  0  0
  1  2  1  0
  2  3  1  0
  3  4  1  0
  4  5  2  0
  4  6  1  0
  6  7  2  3
  7  8  1  0
  8  9  1  0
  9 10  1  0
 10 11  1  0
 11 12  1  0
 12 13  1  0
 13 14  2  0
 14 15  1  0
 15 16  2  0
 15 17  1  0
 17 18  1  0
 18 19  1  0
 19 20  2  0
 20 21  1  0
 21 22  1  0
 11 23  1  0
 23 24  1  0
 23 25  1  0
 25 26  1  0
 26 27  1  0
 27 28  1  0
 24  8  1  0
 22 13  1  0
 28 23  1  0
 21 17  2  0
  1 29  1  0
  1 30  1  0
  1 31  1  0
  2 32  1  0
  2 33  1  0
  6 34  1  0
  7 35  1  0
  8 36  1  0
  9 37  1  0
  9 38  1  0
 10 39  1  0
 10 40  1  0
 11 41  1  0
 19 42  1  0
 20 43  1  0
 22 44  1  0
 24 45  1  0
 24 46  1  0
 25 47  1  0
 26 48  1  0
 26 49  1  0
 27 50  1  0
 28 51  1  0
M  END
>  <Energy>  (253) 
-0.17670114684144345

>  <compound_id>  (253) 
290

>  <target_id>  (253) 
1

>  <reference_id>  (253) 
201

>  <inspiration_ids>  (253) 
[201, 156]

>  <energy_score>  (253) 
-41.703187446947766

>  <distance_score>  (253) 
1.3361589220845813

>  <path>  (253) 
/opt/xchem-fragalysis-2/maxwin/BulkDock/SCRATCH/505737/C290-P201/C290-P201.minimised.mol

>  <scratch_subdir>  (253) 
/opt/xchem-fragalysis-2/maxwin/BulkDock/SCRATCH/505737/C290-P201

>  <fragmenstein_runtime>  (253) 
16.718446493148804

>  <fragmenstein_outcome>  (253) 
too moved

>  <fragmenstein_mode>  (253) 
expansion

>  <fragmenstein_error>  (253) 


$$$$
C290-P156
     RDKit          3D

 51 54  0  0  0  0  0  0  0  0999 V2000
    5.7569   -3.8802   29.2765 C   0  0  0  0  0  0  0  0  0  0  0  0
    5.8843   -4.1118   27.7700 C   0  0  0  0  0  0  0  0  0  0  0  0
    4.5841   -4.0470   27.1746 O   0  0  0  0  0  0  0  0  0  0  0  0
    3.8686   -5.1758   27.3767 C   0  0  0  0  0  0  0  0  0  0  0  0
    4.1697   -6.3138   27.0622 O   0  0  0  0  0  0  0  0  0  0  0  0
    2.6769   -4.7891   28.1542 C   0  0  0  0  0  0  0  0  0  0  0  0
    2.1511   -5.7336   28.9499 C   0  0  0  0  0  0  0  0  0  0  0  0
    1.3044   -5.4737   30.1604 C   0  0  0  0  0  0  0  0  0  0  0  0
    0.6138   -4.1011   30.1759 C   0  0  0  0  0  0  0  0  0  0  0  0
   -0.3365   -3.9270   31.3582 C   0  0  0  0  0  0  0  0  0  0  0  0
   -0.0430   -4.8689   32.5248 C   0  0  0  0  0  0  0  0  0  0  0  0
    1.6508   -4.6842   33.2889 S   0  0  0  0  0  0  0  0  0  0  0  0
    2.1295   -3.0406   33.0884 C   0  0  0  0  0  0  0  0  0  0  0  0
    1.3704   -2.1124   33.5534 N   0  0  0  0  0  0  0  0  0  0  0  0
    1.8266   -0.8057   33.5101 C   0  0  0  0  0  0  0  0  0  0  0  0
    1.1260    0.1382   33.8527 O   0  0  0  0  0  0  0  0  0  0  0  0
    3.1919   -0.6756   33.0397 C   0  0  0  0  0  0  0  0  0  0  0  0
    4.0590    0.7837   33.0125 S   0  0  0  0  0  0  0  0  0  0  0  0
    5.4531   -0.0037   32.3848 C   0  0  0  0  0  0  0  0  0  0  0  0
    5.2471   -1.3564   32.1930 C   0  0  0  0  0  0  0  0  0  0  0  0
    3.9326   -1.7224   32.5612 C   0  0  0  0  0  0  0  0  0  0  0  0
    3.3700   -2.9391   32.5094 N   0  0  0  0  0  0  0  0  0  0  0  0
   -0.1778   -6.3949   32.0577 C   0  0  0  0  0  0  0  0  0  0  0  0
    0.3019   -6.5643   30.5720 C   0  0  0  0  0  0  0  0  0  0  0  0
    0.5151   -7.2972   32.9885 N   0  0  0  0  0  0  0  0  0  0  0  0
   -0.3964   -7.3739   34.1207 C   0  0  0  0  0  0  0  0  0  0  0  0
   -1.6764   -7.5230   33.4875 N   0  0  0  0  0  0  0  0  0  0  0  0
   -1.5264   -6.9548   32.1314 N   0  0  0  0  0  0  0  0  0  0  0  0
    5.2291   -4.7065   29.7627 H   0  0  0  0  0  0  0  0  0  0  0  0
    6.7464   -3.7914   29.7340 H   0  0  0  0  0  0  0  0  0  0  0  0
    5.1876   -2.9671   29.4763 H   0  0  0  0  0  0  0  0  0  0  0  0
    6.4871   -3.3152   27.3224 H   0  0  0  0  0  0  0  0  0  0  0  0
    6.3781   -5.0657   27.5514 H   0  0  0  0  0  0  0  0  0  0  0  0
    2.4523   -3.7328   28.2326 H   0  0  0  0  0  0  0  0  0  0  0  0
    2.5096   -6.7488   28.8279 H   0  0  0  0  0  0  0  0  0  0  0  0
    2.0844   -5.4837   30.9249 H   0  0  0  0  0  0  0  0  0  0  0  0
    0.0510   -3.9385   29.2474 H   0  0  0  0  0  0  0  0  0  0  0  0
    1.3702   -3.3076   30.2182 H   0  0  0  0  0  0  0  0  0  0  0  0
   -1.3602   -4.1111   31.0156 H   0  0  0  0  0  0  0  0  0  0  0  0
   -0.3394   -2.8797   31.6790 H   0  0  0  0  0  0  0  0  0  0  0  0
   -0.7555   -4.6561   33.3301 H   0  0  0  0  0  0  0  0  0  0  0  0
    6.3510    0.5684   32.1916 H   0  0  0  0  0  0  0  0  0  0  0  0
    6.0104   -2.0204   31.8094 H   0  0  0  0  0  0  0  0  0  0  0  0
    3.8838   -3.7936   32.3406 H   0  0  0  0  0  0  0  0  0  0  0  0
    0.7031   -7.5706   30.4145 H   0  0  0  0  0  0  0  0  0  0  0  0
   -0.5559   -6.5000   29.8901 H   0  0  0  0  0  0  0  0  0  0  0  0
    1.3449   -6.8064   33.3205 H   0  0  0  0  0  0  0  0  0  0  0  0
   -0.3800   -6.4673   34.7365 H   0  0  0  0  0  0  0  0  0  0  0  0
   -0.1645   -8.1995   34.7953 H   0  0  0  0  0  0  0  0  0  0  0  0
   -1.8881   -8.5274   33.4554 H   0  0  0  0  0  0  0  0  0  0  0  0
   -1.5750   -7.7329   31.4736 H   0  0  0  0  0  0  0  0  0  0  0  0
  1  2  1  0
  2  3  1  0
  3  4  1  0
  4  5  2  0
  4  6  1  0
  6  7  2  3
  7  8  1  0
  8  9  1  0
  9 10  1  0
 10 11  1  0
 11 12  1  0
 12 13  1  0
 13 14  2  0
 14 15  1  0
 15 16  2  0
 15 17  1  0
 17 18  1  0
 18 19  1  0
 19 20  2  0
 20 21  1  0
 21 22  1  0
 11 23  1  0
 23 24  1  0
 23 25  1  0
 25 26  1  0
 26 27  1  0
 27 28  1  0
 24  8  1  0
 22 13  1  0
 28 23  1  0
 21 17  2  0
  1 29  1  0
  1 30  1  0
  1 31  1  0
  2 32  1  0
  2 33  1  0
  6 34  1  0
  7 35  1  0
  8 36  1  0
  9 37  1  0
  9 38  1  0
 10 39  1  0
 10 40  1  0
 11 41  1  0
 19 42  1  0
 20 43  1  0
 22 44  1  0
 24 45  1  0
 24 46  1  0
 25 47  1  0
 26 48  1  0
 26 49  1  0
 27 50  1  0
 28 51  1  0
M  END
>  <Energy>  (254) 
-4.3483386097346894

>  <compound_id>  (254) 
290

>  <target_id>  (254) 
1

>  <reference_id>  (254) 
156

>  <inspiration_ids>  (254) 
[201, 156]

>  <energy_score>  (254) 
-45.87482490983854

>  <distance_score>  (254) 
1.5930423773182727

>  <path>  (254) 
/opt/xchem-fragalysis-2/maxwin/BulkDock/SCRATCH/505737/C290-P156/C290-P156.minimised.mol

>  <scratch_subdir>  (254) 
/opt/xchem-fragalysis-2/maxwin/BulkDock/SCRATCH/505737/C290-P156

>  <fragmenstein_runtime>  (254) 
11.890051126480103

>  <fragmenstein_outcome>  (254) 
too moved

>  <fragmenstein_mode>  (254) 
expansion

>  <fragmenstein_error>  (254) 


$$$$
C290-P201
     RDKit          3D

 51 54  0  0  0  0  0  0  0  0999 V2000
    5.4818   -4.2972   29.2709 C   0  0  0  0  0  0  0  0  0  0  0  0
    5.8366   -4.9945   27.9560 C   0  0  0  0  0  0  0  0  0  0  0  0
    4.6861   -5.0461   27.0993 O   0  0  0  0  0  0  0  0  0  0  0  0
    3.8541   -6.0683   27.3961 C   0  0  0  0  0  0  0  0  0  0  0  0
    4.0790   -7.2636   27.3013 O   0  0  0  0  0  0  0  0  0  0  0  0
    2.6271   -5.4867   27.9671 C   0  0  0  0  0  0  0  0  0  0  0  0
    1.8939   -6.2873   28.7575 C   0  0  0  0  0  0  0  0  0  0  0  0
    1.1547   -5.7617   29.9502 C   0  0  0  0  0  0  0  0  0  0  0  0
    0.5236   -4.3629   29.8211 C   0  0  0  0  0  0  0  0  0  0  0  0
   -0.2274   -3.9707   31.0974 C   0  0  0  0  0  0  0  0  0  0  0  0
    0.3205   -4.7713   32.2839 C   0  0  0  0  0  0  0  0  0  0  0  0
    0.0935   -3.7962   33.8045 S   0  0  0  0  0  0  0  0  0  0  0  0
    1.4675   -2.6987   33.6071 C   0  0  0  0  0  0  0  0  0  0  0  0
    2.1976   -2.7404   32.5351 N   0  0  0  0  0  0  0  0  0  0  0  0
    3.2689   -1.8817   32.3956 C   0  0  0  0  0  0  0  0  0  0  0  0
    4.0086   -1.9285   31.4192 O   0  0  0  0  0  0  0  0  0  0  0  0
    3.4193   -0.9615   33.4977 C   0  0  0  0  0  0  0  0  0  0  0  0
    4.6155    0.2388   33.5906 S   0  0  0  0  0  0  0  0  0  0  0  0
    4.0348    0.7621   35.1231 C   0  0  0  0  0  0  0  0  0  0  0  0
    2.9478    0.0234   35.5499 C   0  0  0  0  0  0  0  0  0  0  0  0
    2.6067   -0.9670   34.6004 C   0  0  0  0  0  0  0  0  0  0  0  0
    1.6136   -1.8648   34.6787 N   0  0  0  0  0  0  0  0  0  0  0  0
   -0.0213   -6.3040   32.1452 C   0  0  0  0  0  0  0  0  0  0  0  0
    0.1380   -6.7038   30.6287 C   0  0  0  0  0  0  0  0  0  0  0  0
   -1.3016   -6.7840   32.6318 N   0  0  0  0  0  0  0  0  0  0  0  0
   -1.1110   -7.0179   34.0611 C   0  0  0  0  0  0  0  0  0  0  0  0
    0.3179   -7.1728   34.2604 N   0  0  0  0  0  0  0  0  0  0  0  0
    0.9290   -7.0830   32.9568 N   0  0  0  0  0  0  0  0  0  0  0  0
    5.0155   -3.3263   29.0763 H   0  0  0  0  0  0  0  0  0  0  0  0
    6.3793   -4.1461   29.8775 H   0  0  0  0  0  0  0  0  0  0  0  0
    4.7709   -4.8904   29.8540 H   0  0  0  0  0  0  0  0  0  0  0  0
    6.2381   -5.9982   28.1391 H   0  0  0  0  0  0  0  0  0  0  0  0
    6.6057   -4.4206   27.4293 H   0  0  0  0  0  0  0  0  0  0  0  0
    2.5804   -4.4044   28.0056 H   0  0  0  0  0  0  0  0  0  0  0  0
    2.0511   -7.3602   28.7302 H   0  0  0  0  0  0  0  0  0  0  0  0
    2.0021   -5.6843   30.6468 H   0  0  0  0  0  0  0  0  0  0  0  0
    1.3105   -3.6180   29.6502 H   0  0  0  0  0  0  0  0  0  0  0  0
   -0.1578   -4.2996   28.9667 H   0  0  0  0  0  0  0  0  0  0  0  0
   -0.1371   -2.8845   31.2182 H   0  0  0  0  0  0  0  0  0  0  0  0
   -1.2964   -4.1624   30.9992 H   0  0  0  0  0  0  0  0  0  0  0  0
    1.4099   -4.7791   32.2262 H   0  0  0  0  0  0  0  0  0  0  0  0
    4.5214    1.5836   35.6316 H   0  0  0  0  0  0  0  0  0  0  0  0
    2.4420    0.1998   36.4909 H   0  0  0  0  0  0  0  0  0  0  0  0
    0.9444   -1.9493   35.4350 H   0  0  0  0  0  0  0  0  0  0  0  0
   -0.8291   -6.6187   30.1140 H   0  0  0  0  0  0  0  0  0  0  0  0
    0.4326   -7.7550   30.5209 H   0  0  0  0  0  0  0  0  0  0  0  0
   -1.4808   -7.6997   32.2331 H   0  0  0  0  0  0  0  0  0  0  0  0
   -1.6592   -7.9122   34.3734 H   0  0  0  0  0  0  0  0  0  0  0  0
   -1.4715   -6.1866   34.6663 H   0  0  0  0  0  0  0  0  0  0  0  0
    0.4925   -8.0205   34.8012 H   0  0  0  0  0  0  0  0  0  0  0  0
    0.9797   -8.0028   32.5302 H   0  0  0  0  0  0  0  0  0  0  0  0
  1  2  1  0
  2  3  1  0
  3  4  1  0
  4  5  2  0
  4  6  1  0
  6  7  2  3
  7  8  1  0
  8  9  1  0
  9 10  1  0
 10 11  1  0
 11 12  1  0
 12 13  1  0
 13 14  2  0
 14 15  1  0
 15 16  2  0
 15 17  1  0
 17 18  1  0
 18 19  1  0
 19 20  2  0
 20 21  1  0
 21 22  1  0
 11 23  1  0
 23 24  1  0
 23 25  1  0
 25 26  1  0
 26 27  1  0
 27 28  1  0
 24  8  1  0
 22 13  1  0
 28 23  1  0
 21 17  2  0
  1 29  1  0
  1 30  1  0
  1 31  1  0
  2 32  1  0
  2 33  1  0
  6 34  1  0
  7 35  1  0
  8 36  1  0
  9 37  1  0
  9 38  1  0
 10 39  1  0
 10 40  1  0
 11 41  1  0
 19 42  1  0
 20 43  1  0
 22 44  1  0
 24 45  1  0
 24 46  1  0
 25 47  1  0
 26 48  1  0
 26 49  1  0
 27 50  1  0
 28 51  1  0
M  END
>  <Energy>  (255) 
3.1221955983736525

>  <compound_id>  (255) 
290

>  <target_id>  (255) 
1

>  <reference_id>  (255) 
201

>  <inspiration_ids>  (255) 
[201, 157]

>  <energy_score>  (255) 
-38.404290701732464

>  <distance_score>  (255) 
1.2612152580523637

>  <path>  (255) 
/opt/xchem-fragalysis-2/maxwin/BulkDock/SCRATCH/505737/C290-P201/C290-P201.minimised.mol

>  <scratch_subdir>  (255) 
/opt/xchem-fragalysis-2/maxwin/BulkDock/SCRATCH/505737/C290-P201

>  <fragmenstein_runtime>  (255) 
9.603502988815308

>  <fragmenstein_outcome>  (255) 
too moved

>  <fragmenstein_mode>  (255) 
expansion

>  <fragmenstein_error>  (255) 


$$$$
C290-P157
     RDKit          3D

 51 54  0  0  0  0  0  0  0  0999 V2000
    5.7204   -4.1365   29.6583 C   0  0  0  0  0  0  0  0  0  0  0  0
    5.4495   -3.4813   28.3125 C   0  0  0  0  0  0  0  0  0  0  0  0
    5.0985   -4.4589   27.3052 O   0  0  0  0  0  0  0  0  0  0  0  0
    3.9468   -5.1688   27.3292 C   0  0  0  0  0  0  0  0  0  0  0  0
    3.8006   -6.2150   26.7064 O   0  0  0  0  0  0  0  0  0  0  0  0
    2.8827   -4.6523   28.2039 C   0  0  0  0  0  0  0  0  0  0  0  0
    2.2325   -5.5397   28.9735 C   0  0  0  0  0  0  0  0  0  0  0  0
    1.2886   -5.1945   30.0894 C   0  0  0  0  0  0  0  0  0  0  0  0
    0.4864   -3.9069   29.9000 C   0  0  0  0  0  0  0  0  0  0  0  0
   -0.5429   -3.6557   31.0079 C   0  0  0  0  0  0  0  0  0  0  0  0
   -0.5466   -4.6219   32.2133 C   0  0  0  0  0  0  0  0  0  0  0  0
    0.0268   -3.8561   33.7932 S   0  0  0  0  0  0  0  0  0  0  0  0
    1.4645   -2.9510   33.4079 C   0  0  0  0  0  0  0  0  0  0  0  0
    2.0708   -3.0812   32.2767 N   0  0  0  0  0  0  0  0  0  0  0  0
    3.1490   -2.2644   31.9862 C   0  0  0  0  0  0  0  0  0  0  0  0
    3.6981   -2.2952   30.8910 O   0  0  0  0  0  0  0  0  0  0  0  0
    3.5310   -1.3834   33.0635 C   0  0  0  0  0  0  0  0  0  0  0  0
    4.8402   -0.3059   33.0080 S   0  0  0  0  0  0  0  0  0  0  0  0
    4.5033    0.2531   34.6003 C   0  0  0  0  0  0  0  0  0  0  0  0
    3.4066   -0.3793   35.1547 C   0  0  0  0  0  0  0  0  0  0  0  0
    2.8604   -1.3210   34.2534 C   0  0  0  0  0  0  0  0  0  0  0  0
    1.7987   -2.1161   34.4406 N   0  0  0  0  0  0  0  0  0  0  0  0
   -0.1146   -6.1234   31.9324 C   0  0  0  0  0  0  0  0  0  0  0  0
    0.3035   -6.3055   30.4582 C   0  0  0  0  0  0  0  0  0  0  0  0
   -1.1797   -7.0964   32.2071 N   0  0  0  0  0  0  0  0  0  0  0  0
   -1.0873   -7.3036   33.6430 C   0  0  0  0  0  0  0  0  0  0  0  0
    0.3456   -7.3445   33.8923 N   0  0  0  0  0  0  0  0  0  0  0  0
    0.9716   -6.5806   32.8190 N   0  0  0  0  0  0  0  0  0  0  0  0
    4.8266   -4.5913   30.0895 H   0  0  0  0  0  0  0  0  0  0  0  0
    6.1146   -3.4050   30.3697 H   0  0  0  0  0  0  0  0  0  0  0  0
    6.4561   -4.9401   29.5454 H   0  0  0  0  0  0  0  0  0  0  0  0
    6.3710   -3.0048   27.9607 H   0  0  0  0  0  0  0  0  0  0  0  0
    4.6963   -2.6905   28.3688 H   0  0  0  0  0  0  0  0  0  0  0  0
    2.7329   -3.5843   28.2733 H   0  0  0  0  0  0  0  0  0  0  0  0
    2.5036   -6.5840   28.8702 H   0  0  0  0  0  0  0  0  0  0  0  0
    1.9682   -5.0715   30.9387 H   0  0  0  0  0  0  0  0  0  0  0  0
    1.1523   -3.0395   29.8326 H   0  0  0  0  0  0  0  0  0  0  0  0
   -0.0421   -3.9342   28.9371 H   0  0  0  0  0  0  0  0  0  0  0  0
   -0.4837   -2.6080   31.3299 H   0  0  0  0  0  0  0  0  0  0  0  0
   -1.5302   -3.7087   30.5356 H   0  0  0  0  0  0  0  0  0  0  0  0
   -1.6052   -4.6847   32.4688 H   0  0  0  0  0  0  0  0  0  0  0  0
    5.1258    1.0175   35.0462 H   0  0  0  0  0  0  0  0  0  0  0  0
    3.0360   -0.1634   36.1489 H   0  0  0  0  0  0  0  0  0  0  0  0
    1.2099   -2.1305   35.2654 H   0  0  0  0  0  0  0  0  0  0  0  0
   -0.5752   -6.2644   29.8048 H   0  0  0  0  0  0  0  0  0  0  0  0
    0.7274   -7.3019   30.2941 H   0  0  0  0  0  0  0  0  0  0  0  0
   -0.8873   -7.9890   31.8179 H   0  0  0  0  0  0  0  0  0  0  0  0
   -1.5792   -8.2289   33.9410 H   0  0  0  0  0  0  0  0  0  0  0  0
   -1.5652   -6.4867   34.1931 H   0  0  0  0  0  0  0  0  0  0  0  0
    0.4970   -6.9029   34.8058 H   0  0  0  0  0  0  0  0  0  0  0  0
    1.5699   -7.2024   32.2805 H   0  0  0  0  0  0  0  0  0  0  0  0
  1  2  1  0
  2  3  1  0
  3  4  1  0
  4  5  2  0
  4  6  1  0
  6  7  2  3
  7  8  1  0
  8  9  1  0
  9 10  1  0
 10 11  1  0
 11 12  1  0
 12 13  1  0
 13 14  2  0
 14 15  1  0
 15 16  2  0
 15 17  1  0
 17 18  1  0
 18 19  1  0
 19 20  2  0
 20 21  1  0
 21 22  1  0
 11 23  1  0
 23 24  1  0
 23 25  1  0
 25 26  1  0
 26 27  1  0
 27 28  1  0
 24  8  1  0
 22 13  1  0
 28 23  1  0
 21 17  2  0
  1 29  1  0
  1 30  1  0
  1 31  1  0
  2 32  1  0
  2 33  1  0
  6 34  1  0
  7 35  1  0
  8 36  1  0
  9 37  1  0
  9 38  1  0
 10 39  1  0
 10 40  1  0
 11 41  1  0
 19 42  1  0
 20 43  1  0
 22 44  1  0
 24 45  1  0
 24 46  1  0
 25 47  1  0
 26 48  1  0
 26 49  1  0
 27 50  1  0
 28 51  1  0
M  END
>  <Energy>  (256) 
-9.2005645249381214

>  <compound_id>  (256) 
290

>  <target_id>  (256) 
1

>  <reference_id>  (256) 
157

>  <inspiration_ids>  (256) 
[201, 157]

>  <energy_score>  (256) 
-50.727050825045936

>  <distance_score>  (256) 
1.3144682470234952

>  <path>  (256) 
/opt/xchem-fragalysis-2/maxwin/BulkDock/SCRATCH/505737/C290-P157/C290-P157.minimised.mol

>  <scratch_subdir>  (256) 
/opt/xchem-fragalysis-2/maxwin/BulkDock/SCRATCH/505737/C290-P157

>  <fragmenstein_runtime>  (256) 
10.027910709381104

>  <fragmenstein_outcome>  (256) 
too moved

>  <fragmenstein_mode>  (256) 
expansion

>  <fragmenstein_error>  (256) 


$$$$
C293-P201
     RDKit          3D

 54 56  0  0  0  0  0  0  0  0999 V2000
    6.8248   -3.6874   29.3396 C   0  0  0  0  0  0  0  0  0  0  0  0
    5.8277   -3.9478   28.2286 C   0  0  0  0  0  0  0  0  0  0  0  0
    5.5503   -5.3570   28.1328 O   0  0  0  0  0  0  0  0  0  0  0  0
    4.4194   -5.9120   28.6209 C   0  0  0  0  0  0  0  0  0  0  0  0
    4.0165   -7.0097   28.2356 O   0  0  0  0  0  0  0  0  0  0  0  0
    3.7267   -5.2032   29.7167 C   0  0  0  0  0  0  0  0  0  0  0  0
    2.4400   -5.5021   29.9431 C   0  0  0  0  0  0  0  0  0  0  0  0
    1.5353   -5.0357   31.0503 C   0  0  0  0  0  0  0  0  0  0  0  0
    1.9936   -5.4416   32.4805 C   0  0  0  0  0  0  0  0  0  0  0  0
    2.6382   -4.3860   33.4137 C   0  0  0  0  0  0  0  0  0  0  0  0
    4.1876   -4.4610   33.4852 C   0  0  0  0  0  0  0  0  0  0  0  0
    4.6761   -3.8672   34.7162 N   0  0  0  0  0  0  0  0  0  0  0  0
    4.7802   -4.9535   32.5704 O   0  0  0  0  0  0  0  0  0  0  0  0
    2.1968   -2.9432   33.1688 C   0  0  0  0  0  0  0  0  0  0  0  0
    1.9213   -2.6207   31.7070 C   0  0  0  0  0  0  0  0  0  0  0  0
    0.9515   -3.5827   30.9917 C   0  0  0  0  0  0  0  0  0  0  0  0
   -0.4064   -3.6831   31.8229 C   0  0  0  0  0  0  0  0  0  0  0  0
   -1.3915   -2.6985   31.3444 C   0  0  0  0  0  0  0  0  0  0  0  0
   -2.5211   -1.9259   32.3241 S   0  0  0  0  0  0  0  0  0  0  0  0
   -3.2278   -1.2055   30.9525 C   0  0  0  0  0  0  0  0  0  0  0  0
   -2.5470   -1.4686   29.7879 C   0  0  0  0  0  0  0  0  0  0  0  0
   -1.5081   -2.3941   30.0129 C   0  0  0  0  0  0  0  0  0  0  0  0
   -0.6279   -3.0329   29.0118 C   0  0  0  0  0  0  0  0  0  0  0  0
    0.7176   -3.0779   29.5565 N   0  0  0  0  0  0  0  0  0  0  0  0
    1.6881   -2.6344   28.6634 C   0  0  0  0  0  0  0  0  0  0  0  0
    2.2299   -3.4438   27.9003 O   0  0  0  0  0  0  0  0  0  0  0  0
    2.0126   -1.1295   28.5324 C   0  0  0  0  0  0  0  0  0  0  0  0
    0.8622    0.0275   29.3021 S   0  0  0  0  0  0  0  0  0  0  0  0
    3.6630   -0.8459   29.1446 Cl  0  0  0  0  0  0  0  0  0  0  0  0
    7.0571   -2.6209   29.4085 H   0  0  0  0  0  0  0  0  0  0  0  0
    7.7541   -4.2356   29.1510 H   0  0  0  0  0  0  0  0  0  0  0  0
    6.4545   -4.0287   30.3095 H   0  0  0  0  0  0  0  0  0  0  0  0
    6.2616   -3.6447   27.2698 H   0  0  0  0  0  0  0  0  0  0  0  0
    4.9124   -3.3680   28.3582 H   0  0  0  0  0  0  0  0  0  0  0  0
    4.2790   -4.5119   30.3293 H   0  0  0  0  0  0  0  0  0  0  0  0
    1.9560   -6.1852   29.2422 H   0  0  0  0  0  0  0  0  0  0  0  0
    0.6770   -5.7029   30.8623 H   0  0  0  0  0  0  0  0  0  0  0  0
    1.0845   -5.7787   33.0019 H   0  0  0  0  0  0  0  0  0  0  0  0
    2.6200   -6.3366   32.4409 H   0  0  0  0  0  0  0  0  0  0  0  0
    2.3025   -4.6673   34.4236 H   0  0  0  0  0  0  0  0  0  0  0  0
    3.8812   -3.4362   35.2229 H   0  0  0  0  0  0  0  0  0  0  0  0
    3.8698   -3.6482   35.3297 H   0  0  0  0  0  0  0  0  0  0  0  0
    2.9518   -2.2314   33.5258 H   0  0  0  0  0  0  0  0  0  0  0  0
    1.3137   -2.7245   33.7785 H   0  0  0  0  0  0  0  0  0  0  0  0
    2.8835   -2.6163   31.1859 H   0  0  0  0  0  0  0  0  0  0  0  0
    1.5346   -1.5974   31.6632 H   0  0  0  0  0  0  0  0  0  0  0  0
   -0.2640   -3.6243   32.9030 H   0  0  0  0  0  0  0  0  0  0  0  0
   -0.8781   -4.6623   31.6564 H   0  0  0  0  0  0  0  0  0  0  0  0
   -4.1219   -0.6289   31.0697 H   0  0  0  0  0  0  0  0  0  0  0  0
   -2.8145   -1.0869   28.8105 H   0  0  0  0  0  0  0  0  0  0  0  0
   -0.6429   -2.4849   28.0691 H   0  0  0  0  0  0  0  0  0  0  0  0
   -0.9331   -4.0632   28.8189 H   0  0  0  0  0  0  0  0  0  0  0  0
    2.0288   -0.8991   27.4626 H   0  0  0  0  0  0  0  0  0  0  0  0
   -0.1087   -0.1034   28.3852 H   0  0  0  0  0  0  0  0  0  0  0  0
  1  2  1  0
  2  3  1  0
  3  4  1  0
  4  5  2  0
  4  6  1  0
  6  7  2  3
  7  8  1  0
  8  9  1  0
  9 10  1  0
 10 11  1  0
 11 12  1  0
 11 13  2  0
 10 14  1  0
 14 15  1  0
 15 16  1  0
 16 17  1  0
 17 18  1  0
 18 19  1  0
 19 20  1  0
 20 21  2  0
 21 22  1  0
 22 23  1  0
 23 24  1  0
 24 25  1  0
 25 26  2  0
 25 27  1  0
 27 28  1  0
 27 29  1  0
 16  8  1  0
 22 18  2  0
 24 16  1  0
  1 30  1  0
  1 31  1  0
  1 32  1  0
  2 33  1  0
  2 34  1  0
  6 35  1  0
  7 36  1  0
  8 37  1  0
  9 38  1  0
  9 39  1  0
 10 40  1  0
 12 41  1  0
 12 42  1  0
 14 43  1  0
 14 44  1  0
 15 45  1  0
 15 46  1  0
 17 47  1  0
 17 48  1  0
 20 49  1  0
 21 50  1  0
 23 51  1  0
 23 52  1  0
 27 53  1  0
 28 54  1  0
M  END
>  <Energy>  (257) 
293.4169798798963

>  <compound_id>  (257) 
293

>  <target_id>  (257) 
1

>  <reference_id>  (257) 
201

>  <inspiration_ids>  (257) 
[201, 162]

>  <energy_score>  (257) 
109.84724802186702

>  <distance_score>  (257) 
3.9813836965489244

>  <path>  (257) 
/opt/xchem-fragalysis-2/maxwin/BulkDock/SCRATCH/505737/C293-P201/C293-P201.minimised.mol

>  <scratch_subdir>  (257) 
/opt/xchem-fragalysis-2/maxwin/BulkDock/SCRATCH/505737/C293-P201

>  <fragmenstein_runtime>  (257) 
11.216776371002197

>  <fragmenstein_outcome>  (257) 
too moved

>  <fragmenstein_mode>  (257) 
expansion

>  <fragmenstein_error>  (257) 


$$$$
C293-P162
     RDKit          3D

 54 56  0  0  0  0  0  0  0  0999 V2000
    6.6894   -5.1777   28.6860 C   0  0  0  0  0  0  0  0  0  0  0  0
    5.6231   -5.0246   27.6191 C   0  0  0  0  0  0  0  0  0  0  0  0
    4.7820   -6.1929   27.5841 O   0  0  0  0  0  0  0  0  0  0  0  0
    3.5673   -6.2699   28.1713 C   0  0  0  0  0  0  0  0  0  0  0  0
    2.7844   -7.1736   27.8840 O   0  0  0  0  0  0  0  0  0  0  0  0
    3.2686   -5.2940   29.2428 C   0  0  0  0  0  0  0  0  0  0  0  0
    2.0071   -4.9652   29.5661 C   0  0  0  0  0  0  0  0  0  0  0  0
    1.6096   -4.0725   30.7392 C   0  0  0  0  0  0  0  0  0  0  0  0
    0.7249   -5.0309   31.6081 C   0  0  0  0  0  0  0  0  0  0  0  0
   -0.3708   -4.4084   32.4830 C   0  0  0  0  0  0  0  0  0  0  0  0
    0.2082   -3.8733   33.8178 C   0  0  0  0  0  0  0  0  0  0  0  0
   -0.8132   -3.7421   34.8421 N   0  0  0  0  0  0  0  0  0  0  0  0
    1.3716   -3.5767   33.8318 O   0  0  0  0  0  0  0  0  0  0  0  0
   -1.1737   -3.3509   31.7142 C   0  0  0  0  0  0  0  0  0  0  0  0
   -0.6157   -2.9952   30.3266 C   0  0  0  0  0  0  0  0  0  0  0  0
    0.9161   -2.6955   30.3453 C   0  0  0  0  0  0  0  0  0  0  0  0
    1.1575   -1.5653   31.4187 C   0  0  0  0  0  0  0  0  0  0  0  0
    0.7098   -0.2293   30.8607 C   0  0  0  0  0  0  0  0  0  0  0  0
    0.5755    1.1499   31.8404 S   0  0  0  0  0  0  0  0  0  0  0  0
    0.2462    2.1369   30.4844 C   0  0  0  0  0  0  0  0  0  0  0  0
    0.1421    1.4112   29.3182 C   0  0  0  0  0  0  0  0  0  0  0  0
    0.4362    0.0326   29.5235 C   0  0  0  0  0  0  0  0  0  0  0  0
    0.5460   -1.0231   28.4574 C   0  0  0  0  0  0  0  0  0  0  0  0
    1.4033   -2.0550   29.0413 N   0  0  0  0  0  0  0  0  0  0  0  0
    2.5667   -2.3366   28.3457 C   0  0  0  0  0  0  0  0  0  0  0  0
    2.5910   -3.2072   27.4696 O   0  0  0  0  0  0  0  0  0  0  0  0
    3.8260   -1.4844   28.5741 C   0  0  0  0  0  0  0  0  0  0  0  0
    4.5595   -1.7529   30.1931 S   0  0  0  0  0  0  0  0  0  0  0  0
    3.5838    0.2372   28.2600 Cl  0  0  0  0  0  0  0  0  0  0  0  0
    6.2580   -5.3155   29.6808 H   0  0  0  0  0  0  0  0  0  0  0  0
    7.3442   -4.3020   28.7062 H   0  0  0  0  0  0  0  0  0  0  0  0
    7.2993   -6.0652   28.4863 H   0  0  0  0  0  0  0  0  0  0  0  0
    6.0977   -4.9463   26.6353 H   0  0  0  0  0  0  0  0  0  0  0  0
    5.0389   -4.1151   27.7617 H   0  0  0  0  0  0  0  0  0  0  0  0
    4.0961   -4.8904   29.8070 H   0  0  0  0  0  0  0  0  0  0  0  0
    1.1942   -5.3517   28.9581 H   0  0  0  0  0  0  0  0  0  0  0  0
    2.5118   -3.8367   31.3172 H   0  0  0  0  0  0  0  0  0  0  0  0
    0.2034   -5.7480   30.9552 H   0  0  0  0  0  0  0  0  0  0  0  0
    1.3899   -5.6516   32.2258 H   0  0  0  0  0  0  0  0  0  0  0  0
   -1.0401   -5.2338   32.7586 H   0  0  0  0  0  0  0  0  0  0  0  0
   -1.6884   -4.2166   34.5155 H   0  0  0  0  0  0  0  0  0  0  0  0
   -1.7426   -3.9981   34.4332 H   0  0  0  0  0  0  0  0  0  0  0  0
   -1.3027   -2.4429   32.3151 H   0  0  0  0  0  0  0  0  0  0  0  0
   -2.1931   -3.6869   31.5484 H   0  0  0  0  0  0  0  0  0  0  0  0
   -1.2125   -2.1486   29.9746 H   0  0  0  0  0  0  0  0  0  0  0  0
   -0.8210   -3.8055   29.6154 H   0  0  0  0  0  0  0  0  0  0  0  0
    2.2188   -1.4946   31.6636 H   0  0  0  0  0  0  0  0  0  0  0  0
    0.6537   -1.7375   32.3667 H   0  0  0  0  0  0  0  0  0  0  0  0
    0.1326    3.2066   30.6047 H   0  0  0  0  0  0  0  0  0  0  0  0
   -0.0756    1.8635   28.3573 H   0  0  0  0  0  0  0  0  0  0  0  0
    0.9964   -0.6089   27.5519 H   0  0  0  0  0  0  0  0  0  0  0  0
   -0.4244   -1.4418   28.1810 H   0  0  0  0  0  0  0  0  0  0  0  0
    4.5644   -1.8144   27.8372 H   0  0  0  0  0  0  0  0  0  0  0  0
    4.0467   -0.6417   30.7435 H   0  0  0  0  0  0  0  0  0  0  0  0
  1  2  1  0
  2  3  1  0
  3  4  1  0
  4  5  2  0
  4  6  1  0
  6  7  2  3
  7  8  1  0
  8  9  1  0
  9 10  1  0
 10 11  1  0
 11 12  1  0
 11 13  2  0
 10 14  1  0
 14 15  1  0
 15 16  1  0
 16 17  1  0
 17 18  1  0
 18 19  1  0
 19 20  1  0
 20 21  2  0
 21 22  1  0
 22 23  1  0
 23 24  1  0
 24 25  1  0
 25 26  2  0
 25 27  1  0
 27 28  1  0
 27 29  1  0
 16  8  1  0
 22 18  2  0
 24 16  1  0
  1 30  1  0
  1 31  1  0
  1 32  1  0
  2 33  1  0
  2 34  1  0
  6 35  1  0
  7 36  1  0
  8 37  1  0
  9 38  1  0
  9 39  1  0
 10 40  1  0
 12 41  1  0
 12 42  1  0
 14 43  1  0
 14 44  1  0
 15 45  1  0
 15 46  1  0
 17 47  1  0
 17 48  1  0
 20 49  1  0
 21 50  1  0
 23 51  1  0
 23 52  1  0
 27 53  1  0
 28 54  1  0
M  END
>  <Energy>  (258) 
293.55426446559397

>  <compound_id>  (258) 
293

>  <target_id>  (258) 
1

>  <reference_id>  (258) 
162

>  <inspiration_ids>  (258) 
[201, 162]

>  <energy_score>  (258) 
109.98453260756213

>  <distance_score>  (258) 
3.4226531764793826

>  <path>  (258) 
/opt/xchem-fragalysis-2/maxwin/BulkDock/SCRATCH/505737/C293-P162/C293-P162.minimised.mol

>  <scratch_subdir>  (258) 
/opt/xchem-fragalysis-2/maxwin/BulkDock/SCRATCH/505737/C293-P162

>  <fragmenstein_runtime>  (258) 
15.952763557434082

>  <fragmenstein_outcome>  (258) 
too moved

>  <fragmenstein_mode>  (258) 
expansion

>  <fragmenstein_error>  (258) 


$$$$
C294-P201
     RDKit          3D

 51 52  0  0  0  0  0  0  0  0999 V2000
    6.2952   -6.0416   27.4329 C   0  0  0  0  0  0  0  0  0  0  0  0
    5.1455   -5.8952   26.4512 C   0  0  0  0  0  0  0  0  0  0  0  0
    4.0621   -5.2315   27.1169 O   0  0  0  0  0  0  0  0  0  0  0  0
    3.2347   -6.0293   27.8275 C   0  0  0  0  0  0  0  0  0  0  0  0
    3.1943   -7.2510   27.8325 O   0  0  0  0  0  0  0  0  0  0  0  0
    2.4257   -5.1626   28.7050 C   0  0  0  0  0  0  0  0  0  0  0  0
    1.5165   -5.7105   29.5261 C   0  0  0  0  0  0  0  0  0  0  0  0
    0.7334   -5.0014   30.6099 C   0  0  0  0  0  0  0  0  0  0  0  0
    1.3950   -3.7000   31.0694 C   0  0  0  0  0  0  0  0  0  0  0  0
    0.7056   -3.1038   32.2865 C   0  0  0  0  0  0  0  0  0  0  0  0
    0.6524   -4.0520   33.5218 C   0  0  0  0  0  0  0  0  0  0  0  0
    2.1011   -4.3286   34.0389 C   0  0  0  0  0  0  0  0  0  0  0  0
    2.1633   -4.5026   35.5587 C   0  0  0  0  0  0  0  0  0  0  0  0
    1.7469   -3.2172   36.2800 C   0  0  0  0  0  0  0  0  0  0  0  0
    1.1341   -3.5725   37.9310 S   0  0  0  0  0  0  0  0  0  0  0  0
    1.3720   -2.4082   38.7607 O   0  0  0  0  0  0  0  0  0  0  0  0
   -0.1804   -4.1729   37.8299 O   0  0  0  0  0  0  0  0  0  0  0  0
    2.0860   -4.7068   38.5139 F   0  0  0  0  0  0  0  0  0  0  0  0
    0.7329   -2.3888   35.4797 C   0  0  0  0  0  0  0  0  0  0  0  0
   -0.1525   -3.2885   34.6172 C   0  0  0  0  0  0  0  0  0  0  0  0
   -0.0642   -5.3692   33.0602 C   0  0  0  0  0  0  0  0  0  0  0  0
   -0.0660   -6.5001   34.1355 C   0  0  0  0  0  0  0  0  0  0  0  0
   -1.1972   -6.3797   35.0256 N   0  0  0  0  0  0  0  0  0  0  0  0
    0.8265   -7.3039   34.1089 O   0  0  0  0  0  0  0  0  0  0  0  0
    0.5781   -5.9729   31.7857 C   0  0  0  0  0  0  0  0  0  0  0  0
    6.0109   -6.6744   28.2801 H   0  0  0  0  0  0  0  0  0  0  0  0
    7.1663   -6.4864   26.9434 H   0  0  0  0  0  0  0  0  0  0  0  0
    6.5797   -5.0669   27.8428 H   0  0  0  0  0  0  0  0  0  0  0  0
    5.4512   -5.2610   25.6136 H   0  0  0  0  0  0  0  0  0  0  0  0
    4.8355   -6.8623   26.0397 H   0  0  0  0  0  0  0  0  0  0  0  0
    2.6569   -4.1047   28.6962 H   0  0  0  0  0  0  0  0  0  0  0  0
    1.3404   -6.7844   29.4605 H   0  0  0  0  0  0  0  0  0  0  0  0
   -0.2664   -4.7774   30.2178 H   0  0  0  0  0  0  0  0  0  0  0  0
    1.3616   -2.9595   30.2603 H   0  0  0  0  0  0  0  0  0  0  0  0
    2.4554   -3.8657   31.2986 H   0  0  0  0  0  0  0  0  0  0  0  0
   -0.3163   -2.8237   31.9952 H   0  0  0  0  0  0  0  0  0  0  0  0
    1.2134   -2.1671   32.5480 H   0  0  0  0  0  0  0  0  0  0  0  0
    2.7607   -3.4917   33.7722 H   0  0  0  0  0  0  0  0  0  0  0  0
    2.5422   -5.2078   33.5600 H   0  0  0  0  0  0  0  0  0  0  0  0
    3.1868   -4.7630   35.8556 H   0  0  0  0  0  0  0  0  0  0  0  0
    1.5418   -5.3456   35.8738 H   0  0  0  0  0  0  0  0  0  0  0  0
    2.6397   -2.6004   36.4456 H   0  0  0  0  0  0  0  0  0  0  0  0
    0.1082   -1.7805   36.1442 H   0  0  0  0  0  0  0  0  0  0  0  0
    1.2696   -1.6821   34.8355 H   0  0  0  0  0  0  0  0  0  0  0  0
   -0.6466   -3.9677   35.3056 H   0  0  0  0  0  0  0  0  0  0  0  0
   -0.9535   -2.6913   34.1648 H   0  0  0  0  0  0  0  0  0  0  0  0
   -1.1026   -5.1315   32.7938 H   0  0  0  0  0  0  0  0  0  0  0  0
   -1.8265   -5.6294   34.6743 H   0  0  0  0  0  0  0  0  0  0  0  0
   -1.6986   -5.4906   34.8191 H   0  0  0  0  0  0  0  0  0  0  0  0
   -0.0306   -6.8318   31.4666 H   0  0  0  0  0  0  0  0  0  0  0  0
    1.5648   -6.3916   32.0228 H   0  0  0  0  0  0  0  0  0  0  0  0
  1  2  1  0
  2  3  1  0
  3  4  1  0
  4  5  2  0
  4  6  1  0
  6  7  2  3
  7  8  1  0
  8  9  1  0
  9 10  1  0
 10 11  1  0
 11 12  1  0
 12 13  1  0
 13 14  1  0
 14 15  1  0
 15 16  2  0
 15 17  2  0
 15 18  1  0
 14 19  1  0
 19 20  1  0
 11 21  1  0
 21 22  1  0
 22 23  1  0
 22 24  2  0
 21 25  1  0
 25  8  1  0
 20 11  1  0
  1 26  1  0
  1 27  1  0
  1 28  1  0
  2 29  1  0
  2 30  1  0
  6 31  1  0
  7 32  1  0
  8 33  1  0
  9 34  1  0
  9 35  1  0
 10 36  1  0
 10 37  1  0
 12 38  1  0
 12 39  1  0
 13 40  1  0
 13 41  1  0
 14 42  1  0
 19 43  1  0
 19 44  1  0
 20 45  1  0
 20 46  1  0
 21 47  1  0
 23 48  1  0
 23 49  1  0
 25 50  1  0
 25 51  1  0
M  END
>  <Energy>  (259) 
198.95654725341669

>  <compound_id>  (259) 
294

>  <target_id>  (259) 
1

>  <reference_id>  (259) 
201

>  <inspiration_ids>  (259) 
[201, 163]

>  <energy_score>  (259) 
91.86025416672263

>  <distance_score>  (259) 
2.9620215259063785

>  <path>  (259) 
/opt/xchem-fragalysis-2/maxwin/BulkDock/SCRATCH/505737/C294-P201/C294-P201.minimised.mol

>  <scratch_subdir>  (259) 
/opt/xchem-fragalysis-2/maxwin/BulkDock/SCRATCH/505737/C294-P201

>  <fragmenstein_runtime>  (259) 
7.142273664474487

>  <fragmenstein_outcome>  (259) 
too moved

>  <fragmenstein_mode>  (259) 
expansion

>  <fragmenstein_error>  (259) 


$$$$
C294-P163
     RDKit          3D

 51 52  0  0  0  0  0  0  0  0999 V2000
    5.6659   -3.9922   27.6217 C   0  0  0  0  0  0  0  0  0  0  0  0
    4.4918   -4.2569   26.6936 C   0  0  0  0  0  0  0  0  0  0  0  0
    3.2648   -4.1129   27.4208 O   0  0  0  0  0  0  0  0  0  0  0  0
    2.9110   -5.1832   28.1608 C   0  0  0  0  0  0  0  0  0  0  0  0
    3.3948   -6.3079   28.1427 O   0  0  0  0  0  0  0  0  0  0  0  0
    1.8548   -4.7870   29.1001 C   0  0  0  0  0  0  0  0  0  0  0  0
    2.1484   -4.9240   30.3996 C   0  0  0  0  0  0  0  0  0  0  0  0
    1.1305   -4.9315   31.5079 C   0  0  0  0  0  0  0  0  0  0  0  0
    1.4022   -3.8806   32.5798 C   0  0  0  0  0  0  0  0  0  0  0  0
    0.4643   -4.0576   33.7810 C   0  0  0  0  0  0  0  0  0  0  0  0
    0.5534   -5.4624   34.4523 C   0  0  0  0  0  0  0  0  0  0  0  0
   -0.5209   -5.5797   35.5749 C   0  0  0  0  0  0  0  0  0  0  0  0
   -0.0261   -5.1260   36.9424 C   0  0  0  0  0  0  0  0  0  0  0  0
    1.1125   -6.0206   37.4386 C   0  0  0  0  0  0  0  0  0  0  0  0
    2.1107   -5.1537   38.6557 S   0  0  0  0  0  0  0  0  0  0  0  0
    2.9188   -6.1263   39.3619 O   0  0  0  0  0  0  0  0  0  0  0  0
    2.7027   -3.9860   38.0350 O   0  0  0  0  0  0  0  0  0  0  0  0
    1.0828   -4.5911   39.7324 F   0  0  0  0  0  0  0  0  0  0  0  0
    1.9789   -6.5606   36.2926 C   0  0  0  0  0  0  0  0  0  0  0  0
    1.9742   -5.6186   35.0882 C   0  0  0  0  0  0  0  0  0  0  0  0
    0.3390   -6.5781   33.3811 C   0  0  0  0  0  0  0  0  0  0  0  0
   -1.1150   -6.7391   32.9054 C   0  0  0  0  0  0  0  0  0  0  0  0
   -1.7644   -7.9177   33.4414 N   0  0  0  0  0  0  0  0  0  0  0  0
   -1.5213   -5.8984   32.1541 O   0  0  0  0  0  0  0  0  0  0  0  0
    1.1763   -6.3435   32.1138 C   0  0  0  0  0  0  0  0  0  0  0  0
    5.7086   -4.7316   28.4276 H   0  0  0  0  0  0  0  0  0  0  0  0
    6.6091   -4.0261   27.0689 H   0  0  0  0  0  0  0  0  0  0  0  0
    5.5685   -3.0094   28.0945 H   0  0  0  0  0  0  0  0  0  0  0  0
    4.4812   -3.5114   25.8925 H   0  0  0  0  0  0  0  0  0  0  0  0
    4.5619   -5.2441   26.2227 H   0  0  0  0  0  0  0  0  0  0  0  0
    0.8768   -4.5333   28.7168 H   0  0  0  0  0  0  0  0  0  0  0  0
    3.1727   -5.1515   30.6862 H   0  0  0  0  0  0  0  0  0  0  0  0
    0.1456   -4.7332   31.0726 H   0  0  0  0  0  0  0  0  0  0  0  0
    1.2613   -2.8774   32.1586 H   0  0  0  0  0  0  0  0  0  0  0  0
    2.4461   -3.9288   32.9140 H   0  0  0  0  0  0  0  0  0  0  0  0
   -0.5644   -3.8649   33.4514 H   0  0  0  0  0  0  0  0  0  0  0  0
    0.6894   -3.2773   34.5191 H   0  0  0  0  0  0  0  0  0  0  0  0
   -0.8616   -6.6165   35.6796 H   0  0  0  0  0  0  0  0  0  0  0  0
   -1.3972   -4.9860   35.3160 H   0  0  0  0  0  0  0  0  0  0  0  0
   -0.8497   -5.1555   37.6663 H   0  0  0  0  0  0  0  0  0  0  0  0
    0.2849   -4.0762   36.8832 H   0  0  0  0  0  0  0  0  0  0  0  0
    0.6927   -6.8754   37.9845 H   0  0  0  0  0  0  0  0  0  0  0  0
    3.0100   -6.7325   36.6218 H   0  0  0  0  0  0  0  0  0  0  0  0
    1.5917   -7.5385   35.9809 H   0  0  0  0  0  0  0  0  0  0  0  0
    2.3506   -4.6408   35.4144 H   0  0  0  0  0  0  0  0  0  0  0  0
    2.7047   -5.9814   34.3588 H   0  0  0  0  0  0  0  0  0  0  0  0
    0.6788   -7.5284   33.8037 H   0  0  0  0  0  0  0  0  0  0  0  0
   -1.0676   -8.4785   33.9701 H   0  0  0  0  0  0  0  0  0  0  0  0
   -1.1459   -8.3511   34.1553 H   0  0  0  0  0  0  0  0  0  0  0  0
    0.8769   -7.0680   31.3444 H   0  0  0  0  0  0  0  0  0  0  0  0
    2.2146   -6.5640   32.3721 H   0  0  0  0  0  0  0  0  0  0  0  0
  1  2  1  0
  2  3  1  0
  3  4  1  0
  4  5  2  0
  4  6  1  0
  6  7  2  3
  7  8  1  0
  8  9  1  0
  9 10  1  0
 10 11  1  0
 11 12  1  0
 12 13  1  0
 13 14  1  0
 14 15  1  0
 15 16  2  0
 15 17  2  0
 15 18  1  0
 14 19  1  0
 19 20  1  0
 11 21  1  0
 21 22  1  0
 22 23  1  0
 22 24  2  0
 21 25  1  0
 25  8  1  0
 20 11  1  0
  1 26  1  0
  1 27  1  0
  1 28  1  0
  2 29  1  0
  2 30  1  0
  6 31  1  0
  7 32  1  0
  8 33  1  0
  9 34  1  0
  9 35  1  0
 10 36  1  0
 10 37  1  0
 12 38  1  0
 12 39  1  0
 13 40  1  0
 13 41  1  0
 14 42  1  0
 19 43  1  0
 19 44  1  0
 20 45  1  0
 20 46  1  0
 21 47  1  0
 23 48  1  0
 23 49  1  0
 25 50  1  0
 25 51  1  0
M  END
>  <Energy>  (260) 
203.43089975241276

>  <compound_id>  (260) 
294

>  <target_id>  (260) 
1

>  <reference_id>  (260) 
163

>  <inspiration_ids>  (260) 
[201, 163]

>  <energy_score>  (260) 
96.33460666571656

>  <distance_score>  (260) 
2.5882958955925024

>  <path>  (260) 
/opt/xchem-fragalysis-2/maxwin/BulkDock/SCRATCH/505737/C294-P163/C294-P163.minimised.mol

>  <scratch_subdir>  (260) 
/opt/xchem-fragalysis-2/maxwin/BulkDock/SCRATCH/505737/C294-P163

>  <fragmenstein_runtime>  (260) 
7.182762384414673

>  <fragmenstein_outcome>  (260) 
too moved

>  <fragmenstein_mode>  (260) 
expansion

>  <fragmenstein_error>  (260) 


$$$$
C307-P201
     RDKit          3D

 64 67  0  0  0  0  0  0  0  0999 V2000
    6.4398   -4.6554   30.6963 C   0  0  0  0  0  0  0  0  0  0  0  0
    5.3638   -4.4881   29.6449 C   0  0  0  0  0  0  0  0  0  0  0  0
    4.4196   -3.5369   30.1425 O   0  0  0  0  0  0  0  0  0  0  0  0
    3.4499   -3.2030   29.2614 C   0  0  0  0  0  0  0  0  0  0  0  0
    3.3028   -3.6561   28.1379 O   0  0  0  0  0  0  0  0  0  0  0  0
    2.5934   -2.1427   29.8249 C   0  0  0  0  0  0  0  0  0  0  0  0
    2.0567   -2.1169   31.0587 C   0  0  0  0  0  0  0  0  0  0  0  0
    2.1567   -3.1727   32.1580 C   0  0  0  0  0  0  0  0  0  0  0  0
    1.3614   -4.4080   31.6567 C   0  0  0  0  0  0  0  0  0  0  0  0
    0.6853   -5.2821   32.7193 C   0  0  0  0  0  0  0  0  0  0  0  0
   -0.0637   -4.4168   33.7579 C   0  0  0  0  0  0  0  0  0  0  0  0
    0.2029   -2.9225   33.7191 C   0  0  0  0  0  0  0  0  0  0  0  0
    1.6752   -2.6084   33.5505 C   0  0  0  0  0  0  0  0  0  0  0  0
    2.5322   -3.1730   34.6394 N   0  0  0  0  0  0  0  0  0  0  0  0
    2.3161   -2.8398   36.2932 S   0  0  0  0  0  0  0  0  0  0  0  0
    1.3195   -1.8038   36.4307 O   0  0  0  0  0  0  0  0  0  0  0  0
    3.6621   -2.6604   36.7958 O   0  0  0  0  0  0  0  0  0  0  0  0
    1.7023   -4.3537   37.0215 C   0  0  0  0  0  0  0  0  0  0  0  0
    2.5856   -5.4100   37.2941 C   0  0  0  0  0  0  0  0  0  0  0  0
    2.1034   -6.6077   37.8374 C   0  0  0  0  0  0  0  0  0  0  0  0
    0.7558   -6.7126   38.1605 C   0  0  0  0  0  0  0  0  0  0  0  0
    0.2388   -7.8459   38.7071 O   0  0  0  0  0  0  0  0  0  0  0  0
   -0.1088   -5.6394   37.9692 C   0  0  0  0  0  0  0  0  0  0  0  0
    0.3603   -4.4552   37.3966 C   0  0  0  0  0  0  0  0  0  0  0  0
   -0.3300   -6.1974   32.0851 C   0  0  0  0  0  0  0  0  0  0  0  0
   -0.8131   -7.2552   32.7370 C   0  0  0  0  0  0  0  0  0  0  0  0
   -1.5293   -8.1865   31.8518 C   0  0  0  0  0  0  0  0  0  0  0  0
   -1.4077   -7.5682   30.5052 N   0  0  0  0  0  0  0  0  0  0  0  0
   -0.7248   -6.4838   30.7215 C   0  0  0  0  0  0  0  0  0  0  0  0
   -0.4284   -7.5029   34.1447 C   0  0  0  0  0  0  0  0  0  0  0  0
    1.0143   -7.2631   34.3595 N   0  0  0  0  0  0  0  0  0  0  0  0
    1.6419   -6.3685   33.3512 C   0  0  0  0  0  0  0  0  0  0  0  0
    3.0105   -5.9711   33.8729 C   0  0  0  0  0  0  0  0  0  0  0  0
    6.0050   -4.9616   31.6534 H   0  0  0  0  0  0  0  0  0  0  0  0
    7.1763   -5.4018   30.3863 H   0  0  0  0  0  0  0  0  0  0  0  0
    6.9546   -3.7053   30.8739 H   0  0  0  0  0  0  0  0  0  0  0  0
    5.8101   -4.1271   28.7114 H   0  0  0  0  0  0  0  0  0  0  0  0
    4.8603   -5.4450   29.4686 H   0  0  0  0  0  0  0  0  0  0  0  0
    2.3440   -1.3633   29.1099 H   0  0  0  0  0  0  0  0  0  0  0  0
    1.4082   -1.2665   31.2760 H   0  0  0  0  0  0  0  0  0  0  0  0
    3.2132   -3.4397   32.2626 H   0  0  0  0  0  0  0  0  0  0  0  0
    2.0173   -5.0254   31.0270 H   0  0  0  0  0  0  0  0  0  0  0  0
    0.5734   -4.0447   30.9797 H   0  0  0  0  0  0  0  0  0  0  0  0
    0.1509   -4.7744   34.7636 H   0  0  0  0  0  0  0  0  0  0  0  0
   -1.1425   -4.5273   33.6339 H   0  0  0  0  0  0  0  0  0  0  0  0
   -0.2108   -2.4637   34.6218 H   0  0  0  0  0  0  0  0  0  0  0  0
   -0.3605   -2.4791   32.8874 H   0  0  0  0  0  0  0  0  0  0  0  0
    1.8324   -1.5224   33.5723 H   0  0  0  0  0  0  0  0  0  0  0  0
    3.5326   -3.0440   34.4601 H   0  0  0  0  0  0  0  0  0  0  0  0
    3.6461   -5.3120   37.0716 H   0  0  0  0  0  0  0  0  0  0  0  0
    2.7844   -7.4305   38.0332 H   0  0  0  0  0  0  0  0  0  0  0  0
    0.6347   -8.6345   38.2873 H   0  0  0  0  0  0  0  0  0  0  0  0
   -1.1505   -5.7241   38.2668 H   0  0  0  0  0  0  0  0  0  0  0  0
   -0.3273   -3.6261   37.2432 H   0  0  0  0  0  0  0  0  0  0  0  0
   -1.0616   -9.1695   31.8235 H   0  0  0  0  0  0  0  0  0  0  0  0
   -2.5781   -8.2937   32.1189 H   0  0  0  0  0  0  0  0  0  0  0  0
   -0.4414   -5.7895   29.9190 H   0  0  0  0  0  0  0  0  0  0  0  0
   -0.6664   -8.5090   34.4601 H   0  0  0  0  0  0  0  0  0  0  0  0
   -1.0192   -6.8508   34.7997 H   0  0  0  0  0  0  0  0  0  0  0  0
    1.1028   -6.8532   35.2914 H   0  0  0  0  0  0  0  0  0  0  0  0
    1.9004   -7.0171   32.5086 H   0  0  0  0  0  0  0  0  0  0  0  0
    3.5795   -6.8551   34.1752 H   0  0  0  0  0  0  0  0  0  0  0  0
    2.9500   -5.3756   34.7676 H   0  0  0  0  0  0  0  0  0  0  0  0
    3.6051   -5.4506   33.1201 H   0  0  0  0  0  0  0  0  0  0  0  0
  1  2  1  0
  2  3  1  0
  3  4  1  0
  4  5  2  0
  4  6  1  0
  6  7  2  3
  7  8  1  0
  8  9  1  0
  9 10  1  0
 10 11  1  0
 11 12  1  0
 12 13  1  0
 13 14  1  0
 14 15  1  0
 15 16  2  0
 15 17  2  0
 15 18  1  0
 18 19  2  0
 19 20  1  0
 20 21  2  0
 21 22  1  0
 21 23  1  0
 23 24  2  0
 10 25  1  0
 25 26  2  0
 26 27  1  0
 27 28  1  0
 28 29  2  0
 26 30  1  0
 30 31  1  0
 31 32  1  0
 32 33  1  0
 13  8  1  0
 24 18  1  0
 29 25  1  0
 32 10  1  0
  1 34  1  0
  1 35  1  0
  1 36  1  0
  2 37  1  0
  2 38  1  0
  6 39  1  0
  7 40  1  0
  8 41  1  0
  9 42  1  0
  9 43  1  0
 11 44  1  0
 11 45  1  0
 12 46  1  0
 12 47  1  0
 13 48  1  0
 14 49  1  0
 19 50  1  0
 20 51  1  0
 22 52  1  0
 23 53  1  0
 24 54  1  0
 27 55  1  0
 27 56  1  0
 29 57  1  0
 30 58  1  0
 30 59  1  0
 31 60  1  0
 32 61  1  0
 33 62  1  0
 33 63  1  0
 33 64  1  0
M  END
>  <Energy>  (261) 
26.676338944418742

>  <compound_id>  (261) 
307

>  <target_id>  (261) 
1

>  <reference_id>  (261) 
201

>  <inspiration_ids>  (261) 
[201, 167]

>  <energy_score>  (261) 
-62.00256919550361

>  <distance_score>  (261) 
3.523887123231412

>  <path>  (261) 
/opt/xchem-fragalysis-2/maxwin/BulkDock/SCRATCH/505737/C307-P201/C307-P201.minimised.mol

>  <scratch_subdir>  (261) 
/opt/xchem-fragalysis-2/maxwin/BulkDock/SCRATCH/505737/C307-P201

>  <fragmenstein_runtime>  (261) 
16.300945520401

>  <fragmenstein_outcome>  (261) 
too moved

>  <fragmenstein_mode>  (261) 
expansion

>  <fragmenstein_error>  (261) 


$$$$
C307-P167
     RDKit          3D

 64 67  0  0  0  0  0  0  0  0999 V2000
    6.9155   -2.9869   30.2195 C   0  0  0  0  0  0  0  0  0  0  0  0
    5.6555   -3.8097   30.0623 C   0  0  0  0  0  0  0  0  0  0  0  0
    4.6854   -3.0936   29.2847 O   0  0  0  0  0  0  0  0  0  0  0  0
    3.9105   -2.2329   29.9875 C   0  0  0  0  0  0  0  0  0  0  0  0
    3.9976   -1.9691   31.1722 O   0  0  0  0  0  0  0  0  0  0  0  0
    2.8607   -1.7336   29.0976 C   0  0  0  0  0  0  0  0  0  0  0  0
    1.5568   -1.5827   29.3729 C   0  0  0  0  0  0  0  0  0  0  0  0
    0.6318   -1.7804   30.5681 C   0  0  0  0  0  0  0  0  0  0  0  0
   -0.6145   -2.6618   30.1253 C   0  0  0  0  0  0  0  0  0  0  0  0
   -0.8735   -3.8451   31.0454 C   0  0  0  0  0  0  0  0  0  0  0  0
   -0.9696   -3.3313   32.4979 C   0  0  0  0  0  0  0  0  0  0  0  0
   -0.2610   -2.0362   32.8548 C   0  0  0  0  0  0  0  0  0  0  0  0
    1.0474   -1.8932   32.1107 C   0  0  0  0  0  0  0  0  0  0  0  0
    1.9814   -2.9995   32.5049 N   0  0  0  0  0  0  0  0  0  0  0  0
    2.5155   -3.1838   34.1350 S   0  0  0  0  0  0  0  0  0  0  0  0
    1.9893   -2.1079   34.9444 O   0  0  0  0  0  0  0  0  0  0  0  0
    3.9461   -3.3935   34.0230 O   0  0  0  0  0  0  0  0  0  0  0  0
    1.8408   -4.7288   34.7274 C   0  0  0  0  0  0  0  0  0  0  0  0
    0.5836   -4.7569   35.3335 C   0  0  0  0  0  0  0  0  0  0  0  0
    0.0702   -5.9647   35.8156 C   0  0  0  0  0  0  0  0  0  0  0  0
    0.8367   -7.1203   35.7516 C   0  0  0  0  0  0  0  0  0  0  0  0
    0.3582   -8.3171   36.1868 O   0  0  0  0  0  0  0  0  0  0  0  0
    2.1247   -7.0837   35.2324 C   0  0  0  0  0  0  0  0  0  0  0  0
    2.6294   -5.8878   34.7131 C   0  0  0  0  0  0  0  0  0  0  0  0
   -2.1912   -4.6281   30.8851 C   0  0  0  0  0  0  0  0  0  0  0  0
   -1.9966   -6.3188   31.3453 C   0  0  0  0  0  0  0  0  0  0  0  0
   -3.7368   -7.3916   31.6856 C   0  0  0  0  0  0  0  0  0  0  0  0
   -5.2925   -5.7162   31.4865 N   0  0  0  0  0  0  0  0  0  0  0  0
   -4.2917   -4.2594   31.1197 C   0  0  0  0  0  0  0  0  0  0  0  0
   -0.7384   -6.9914   31.7418 C   0  0  0  0  0  0  0  0  0  0  0  0
    0.3346   -6.0159   31.7836 N   0  0  0  0  0  0  0  0  0  0  0  0
    0.2172   -5.0259   30.7042 C   0  0  0  0  0  0  0  0  0  0  0  0
    1.5979   -4.7989   30.0921 C   0  0  0  0  0  0  0  0  0  0  0  0
    7.6827   -3.5512   30.7572 H   0  0  0  0  0  0  0  0  0  0  0  0
    7.3116   -2.6986   29.2402 H   0  0  0  0  0  0  0  0  0  0  0  0
    6.7181   -2.0602   30.7674 H   0  0  0  0  0  0  0  0  0  0  0  0
    5.8824   -4.7323   29.5179 H   0  0  0  0  0  0  0  0  0  0  0  0
    5.2434   -4.1055   31.0345 H   0  0  0  0  0  0  0  0  0  0  0  0
    3.2084   -1.5142   28.0908 H   0  0  0  0  0  0  0  0  0  0  0  0
    0.9877   -1.2066   28.5128 H   0  0  0  0  0  0  0  0  0  0  0  0
    0.1797   -0.7698   30.5818 H   0  0  0  0  0  0  0  0  0  0  0  0
   -0.5222   -2.9992   29.0845 H   0  0  0  0  0  0  0  0  0  0  0  0
   -1.5032   -2.0133   30.1303 H   0  0  0  0  0  0  0  0  0  0  0  0
   -0.6737   -4.1190   33.1869 H   0  0  0  0  0  0  0  0  0  0  0  0
   -2.0165   -3.0973   32.7240 H   0  0  0  0  0  0  0  0  0  0  0  0
   -0.9133   -1.1898   32.5965 H   0  0  0  0  0  0  0  0  0  0  0  0
   -0.1544   -1.9687   33.9392 H   0  0  0  0  0  0  0  0  0  0  0  0
    1.5394   -0.9495   32.3801 H   0  0  0  0  0  0  0  0  0  0  0  0
    2.8828   -2.8514   32.0268 H   0  0  0  0  0  0  0  0  0  0  0  0
   -0.0174   -3.8552   35.4147 H   0  0  0  0  0  0  0  0  0  0  0  0
   -0.9296   -5.9864   36.2325 H   0  0  0  0  0  0  0  0  0  0  0  0
   -0.5474   -8.2111   36.5515 H   0  0  0  0  0  0  0  0  0  0  0  0
    2.7362   -7.9800   35.2459 H   0  0  0  0  0  0  0  0  0  0  0  0
    3.6410   -5.8609   34.3162 H   0  0  0  0  0  0  0  0  0  0  0  0
   -4.1504   -8.3530   32.1201 H   0  0  0  0  0  0  0  0  0  0  0  0
   -3.4311   -8.0173   30.7835 H   0  0  0  0  0  0  0  0  0  0  0  0
   -4.7272   -3.2515   31.0936 H   0  0  0  0  0  0  0  0  0  0  0  0
   -0.5094   -7.7821   31.0195 H   0  0  0  0  0  0  0  0  0  0  0  0
   -0.8513   -7.4531   32.7268 H   0  0  0  0  0  0  0  0  0  0  0  0
    1.2343   -6.4829   31.8031 H   0  0  0  0  0  0  0  0  0  0  0  0
   -0.2110   -5.5440   29.8317 H   0  0  0  0  0  0  0  0  0  0  0  0
    1.5417   -4.1775   29.1993 H   0  0  0  0  0  0  0  0  0  0  0  0
    1.9981   -5.7576   29.7313 H   0  0  0  0  0  0  0  0  0  0  0  0
    2.3496   -4.4330   30.7789 H   0  0  0  0  0  0  0  0  0  0  0  0
  1  2  1  0
  2  3  1  0
  3  4  1  0
  4  5  2  0
  4  6  1  0
  6  7  2  3
  7  8  1  0
  8  9  1  0
  9 10  1  0
 10 11  1  0
 11 12  1  0
 12 13  1  0
 13 14  1  0
 14 15  1  0
 15 16  2  0
 15 17  2  0
 15 18  1  0
 18 19  2  0
 19 20  1  0
 20 21  2  0
 21 22  1  0
 21 23  1  0
 23 24  2  0
 10 25  1  0
 25 26  2  0
 26 27  1  0
 27 28  1  0
 28 29  2  0
 26 30  1  0
 30 31  1  0
 31 32  1  0
 32 33  1  0
 13  8  1  0
 24 18  1  0
 29 25  1  0
 32 10  1  0
  1 34  1  0
  1 35  1  0
  1 36  1  0
  2 37  1  0
  2 38  1  0
  6 39  1  0
  7 40  1  0
  8 41  1  0
  9 42  1  0
  9 43  1  0
 11 44  1  0
 11 45  1  0
 12 46  1  0
 12 47  1  0
 13 48  1  0
 14 49  1  0
 19 50  1  0
 20 51  1  0
 22 52  1  0
 23 53  1  0
 24 54  1  0
 27 55  1  0
 27 56  1  0
 29 57  1  0
 30 58  1  0
 30 59  1  0
 31 60  1  0
 32 61  1  0
 33 62  1  0
 33 63  1  0
 33 64  1  0
M  END
>  <Energy>  (262) 
680.14455244227327

>  <compound_id>  (262) 
307

>  <target_id>  (262) 
1

>  <reference_id>  (262) 
167

>  <inspiration_ids>  (262) 
[201, 167]

>  <energy_score>  (262) 
591.4656443023418

>  <distance_score>  (262) 
3.9236938267546777

>  <path>  (262) 
/opt/xchem-fragalysis-2/maxwin/BulkDock/SCRATCH/505737/C307-P167/C307-P167.minimised.mol

>  <scratch_subdir>  (262) 
/opt/xchem-fragalysis-2/maxwin/BulkDock/SCRATCH/505737/C307-P167

>  <fragmenstein_runtime>  (262) 
18.017972707748413

>  <fragmenstein_outcome>  (262) 
too moved

>  <fragmenstein_mode>  (262) 
expansion

>  <fragmenstein_error>  (262) 


$$$$
C298-P201
     RDKit          3D

 70 72  0  0  0  0  0  0  0  0999 V2000
    5.3580   -4.1039   29.8422 C   0  0  0  0  0  0  0  0  0  0  0  0
    5.3316   -3.4983   28.4458 C   0  0  0  0  0  0  0  0  0  0  0  0
    4.2636   -2.5489   28.3481 O   0  0  0  0  0  0  0  0  0  0  0  0
    3.0316   -3.0889   28.2207 C   0  0  0  0  0  0  0  0  0  0  0  0
    2.7497   -4.2551   27.9880 O   0  0  0  0  0  0  0  0  0  0  0  0
    2.0401   -2.0481   28.5145 C   0  0  0  0  0  0  0  0  0  0  0  0
    1.4227   -2.0293   29.7080 C   0  0  0  0  0  0  0  0  0  0  0  0
    1.6269   -2.9923   30.8382 C   0  0  0  0  0  0  0  0  0  0  0  0
    2.1610   -2.4034   32.1517 C   0  0  0  0  0  0  0  0  0  0  0  0
    1.9369   -3.3790   33.3289 C   0  0  0  0  0  0  0  0  0  0  0  0
    1.8405   -4.8435   32.8669 C   0  0  0  0  0  0  0  0  0  0  0  0
    0.6894   -5.0931   31.8297 C   0  0  0  0  0  0  0  0  0  0  0  0
    0.3276   -3.7291   31.1529 C   0  0  0  0  0  0  0  0  0  0  0  0
    1.2156   -6.0558   30.6852 C   0  0  0  0  0  0  0  0  0  0  0  0
    0.8357   -5.6678   29.3689 O   0  0  0  0  0  0  0  0  0  0  0  0
    0.6594   -7.4527   30.8332 C   0  0  0  0  0  0  0  0  0  0  0  0
   -0.8467   -7.5119   30.8617 C   0  0  0  0  0  0  0  0  0  0  0  0
   -1.3307   -8.7348   31.6216 C   0  0  0  0  0  0  0  0  0  0  0  0
   -1.4041   -6.2836   31.4013 N   0  0  0  0  0  0  0  0  0  0  0  0
   -0.6246   -5.6723   32.4851 C   0  0  0  0  0  0  0  0  0  0  0  0
   -0.5430   -6.6411   33.6744 C   0  0  0  0  0  0  0  0  0  0  0  0
   -0.5047   -5.9501   35.0119 C   0  0  0  0  0  0  0  0  0  0  0  0
   -0.0268   -6.8960   35.9985 N   0  0  0  0  0  0  0  0  0  0  0  0
    1.0471   -6.3898   37.1390 S   0  0  0  0  0  0  0  0  0  0  0  0
    2.3013   -6.1351   36.4700 O   0  0  0  0  0  0  0  0  0  0  0  0
    0.9345   -7.3015   38.2461 O   0  0  0  0  0  0  0  0  0  0  0  0
    0.3776   -4.9233   37.5736 N   0  0  0  0  0  0  0  0  0  0  0  0
    1.2544   -3.9707   38.2919 C   0  0  0  0  0  0  0  0  0  0  0  0
    0.3433   -3.2572   39.2887 C   0  0  0  0  0  0  0  0  0  0  0  0
   -1.0547   -3.4929   38.7466 C   0  0  0  0  0  0  0  0  0  0  0  0
   -0.9459   -4.9114   38.2185 C   0  0  0  0  0  0  0  0  0  0  0  0
    6.2472   -4.7275   29.9722 H   0  0  0  0  0  0  0  0  0  0  0  0
    4.4783   -4.7283   30.0222 H   0  0  0  0  0  0  0  0  0  0  0  0
    5.3598   -3.3192   30.6056 H   0  0  0  0  0  0  0  0  0  0  0  0
    6.2633   -2.9530   28.2638 H   0  0  0  0  0  0  0  0  0  0  0  0
    5.2469   -4.2688   27.6709 H   0  0  0  0  0  0  0  0  0  0  0  0
    1.8559   -1.3038   27.7503 H   0  0  0  0  0  0  0  0  0  0  0  0
    0.6986   -1.2334   29.8822 H   0  0  0  0  0  0  0  0  0  0  0  0
    2.3802   -3.7166   30.5198 H   0  0  0  0  0  0  0  0  0  0  0  0
    1.6842   -1.4432   32.3839 H   0  0  0  0  0  0  0  0  0  0  0  0
    3.2337   -2.1997   32.0432 H   0  0  0  0  0  0  0  0  0  0  0  0
    1.0149   -3.1053   33.8560 H   0  0  0  0  0  0  0  0  0  0  0  0
    2.7517   -3.2669   34.0534 H   0  0  0  0  0  0  0  0  0  0  0  0
    1.7855   -5.5150   33.7234 H   0  0  0  0  0  0  0  0  0  0  0  0
    2.8128   -5.0831   32.4161 H   0  0  0  0  0  0  0  0  0  0  0  0
   -0.2891   -3.8623   30.2565 H   0  0  0  0  0  0  0  0  0  0  0  0
   -0.2921   -3.1138   31.8208 H   0  0  0  0  0  0  0  0  0  0  0  0
    2.3078   -6.0894   30.6838 H   0  0  0  0  0  0  0  0  0  0  0  0
    1.5473   -5.1262   28.9661 H   0  0  0  0  0  0  0  0  0  0  0  0
    0.9959   -8.0965   30.0126 H   0  0  0  0  0  0  0  0  0  0  0  0
    1.0376   -7.8172   31.7750 H   0  0  0  0  0  0  0  0  0  0  0  0
   -1.2117   -7.5901   29.8329 H   0  0  0  0  0  0  0  0  0  0  0  0
   -0.8126   -8.8772   32.5642 H   0  0  0  0  0  0  0  0  0  0  0  0
   -1.1592   -9.6408   31.0337 H   0  0  0  0  0  0  0  0  0  0  0  0
   -2.3937   -8.6531   31.8597 H   0  0  0  0  0  0  0  0  0  0  0  0
   -1.3256   -5.6280   30.6232 H   0  0  0  0  0  0  0  0  0  0  0  0
   -1.2192   -4.8188   32.8319 H   0  0  0  0  0  0  0  0  0  0  0  0
   -1.4418   -7.2669   33.7201 H   0  0  0  0  0  0  0  0  0  0  0  0
    0.3205   -7.3057   33.5916 H   0  0  0  0  0  0  0  0  0  0  0  0
    0.1147   -5.0529   34.9778 H   0  0  0  0  0  0  0  0  0  0  0  0
   -1.5008   -5.6401   35.3139 H   0  0  0  0  0  0  0  0  0  0  0  0
   -0.6192   -7.6764   36.2888 H   0  0  0  0  0  0  0  0  0  0  0  0
    1.6671   -3.2617   37.5667 H   0  0  0  0  0  0  0  0  0  0  0  0
    2.0792   -4.4661   38.8132 H   0  0  0  0  0  0  0  0  0  0  0  0
    0.4428   -3.7201   40.2782 H   0  0  0  0  0  0  0  0  0  0  0  0
    0.5861   -2.1956   39.3899 H   0  0  0  0  0  0  0  0  0  0  0  0
   -1.8305   -3.3854   39.5094 H   0  0  0  0  0  0  0  0  0  0  0  0
   -1.2680   -2.7925   37.9302 H   0  0  0  0  0  0  0  0  0  0  0  0
   -0.9960   -5.6349   39.0386 H   0  0  0  0  0  0  0  0  0  0  0  0
   -1.7333   -5.1100   37.4952 H   0  0  0  0  0  0  0  0  0  0  0  0
  1  2  1  0
  2  3  1  0
  3  4  1  0
  4  5  2  0
  4  6  1  0
  6  7  2  3
  7  8  1  0
  8  9  1  0
  9 10  1  0
 10 11  1  0
 11 12  1  0
 12 13  1  0
 12 14  1  0
 14 15  1  0
 14 16  1  0
 16 17  1  0
 17 18  1  0
 17 19  1  0
 19 20  1  0
 20 21  1  0
 21 22  1  0
 22 23  1  0
 23 24  1  0
 24 25  2  0
 24 26  2  0
 24 27  1  0
 27 28  1  0
 28 29  1  0
 29 30  1  0
 30 31  1  0
 13  8  1  0
 31 27  1  0
 20 12  1  0
  1 32  1  0
  1 33  1  0
  1 34  1  0
  2 35  1  0
  2 36  1  0
  6 37  1  0
  7 38  1  0
  8 39  1  0
  9 40  1  0
  9 41  1  0
 10 42  1  0
 10 43  1  0
 11 44  1  0
 11 45  1  0
 13 46  1  0
 13 47  1  0
 14 48  1  0
 15 49  1  0
 16 50  1  0
 16 51  1  0
 17 52  1  0
 18 53  1  0
 18 54  1  0
 18 55  1  0
 19 56  1  0
 20 57  1  0
 21 58  1  0
 21 59  1  0
 22 60  1  0
 22 61  1  0
 23 62  1  0
 28 63  1  0
 28 64  1  0
 29 65  1  0
 29 66  1  0
 30 67  1  0
 30 68  1  0
 31 69  1  0
 31 70  1  0
M  END
>  <Energy>  (263) 
-114.22161597264557

>  <compound_id>  (263) 
298

>  <target_id>  (263) 
1

>  <reference_id>  (263) 
201

>  <inspiration_ids>  (263) 
[201, 168]

>  <energy_score>  (263) 
-77.51556814907211

>  <distance_score>  (263) 
2.0717575212488333

>  <path>  (263) 
/opt/xchem-fragalysis-2/maxwin/BulkDock/SCRATCH/505737/C298-P201/C298-P201.minimised.mol

>  <scratch_subdir>  (263) 
/opt/xchem-fragalysis-2/maxwin/BulkDock/SCRATCH/505737/C298-P201

>  <fragmenstein_runtime>  (263) 
12.439706325531006

>  <fragmenstein_outcome>  (263) 
too moved

>  <fragmenstein_mode>  (263) 
expansion

>  <fragmenstein_error>  (263) 


$$$$
C298-P168
     RDKit          3D

 70 72  0  0  0  0  0  0  0  0999 V2000
    5.1501   -3.9169   29.5820 C   0  0  0  0  0  0  0  0  0  0  0  0
    4.1977   -4.1488   28.4238 C   0  0  0  0  0  0  0  0  0  0  0  0
    2.9773   -3.4706   28.7408 O   0  0  0  0  0  0  0  0  0  0  0  0
    1.8395   -4.0017   28.2602 C   0  0  0  0  0  0  0  0  0  0  0  0
    1.7534   -4.9269   27.4638 O   0  0  0  0  0  0  0  0  0  0  0  0
    0.6360   -3.3226   28.7879 C   0  0  0  0  0  0  0  0  0  0  0  0
    0.5094   -2.6128   29.9207 C   0  0  0  0  0  0  0  0  0  0  0  0
    1.5699   -2.2850   30.9420 C   0  0  0  0  0  0  0  0  0  0  0  0
    1.1916   -1.1803   31.9480 C   0  0  0  0  0  0  0  0  0  0  0  0
    0.4241   -1.6501   33.1839 C   0  0  0  0  0  0  0  0  0  0  0  0
    1.0410   -2.8982   33.8280 C   0  0  0  0  0  0  0  0  0  0  0  0
    1.1660   -4.0639   32.8240 C   0  0  0  0  0  0  0  0  0  0  0  0
    2.0575   -3.5407   31.6639 C   0  0  0  0  0  0  0  0  0  0  0  0
    1.8697   -5.2509   33.4468 C   0  0  0  0  0  0  0  0  0  0  0  0
    3.2658   -5.0390   33.6725 O   0  0  0  0  0  0  0  0  0  0  0  0
    1.6765   -6.5083   32.6016 C   0  0  0  0  0  0  0  0  0  0  0  0
    0.4939   -6.7256   31.6199 C   0  0  0  0  0  0  0  0  0  0  0  0
   -0.5342   -7.8252   31.9147 C   0  0  0  0  0  0  0  0  0  0  0  0
   -0.2342   -5.5239   31.3144 N   0  0  0  0  0  0  0  0  0  0  0  0
   -0.2397   -4.6018   32.4419 C   0  0  0  0  0  0  0  0  0  0  0  0
   -1.0816   -5.1940   33.5980 C   0  0  0  0  0  0  0  0  0  0  0  0
   -0.7403   -6.2504   34.6596 C   0  0  0  0  0  0  0  0  0  0  0  0
   -0.3983   -5.5478   35.9034 N   0  0  0  0  0  0  0  0  0  0  0  0
    0.5812   -6.3554   36.9952 S   0  0  0  0  0  0  0  0  0  0  0  0
    1.9125   -6.4429   36.4425 O   0  0  0  0  0  0  0  0  0  0  0  0
   -0.1505   -7.5194   37.4110 O   0  0  0  0  0  0  0  0  0  0  0  0
    0.5514   -5.2059   38.2001 N   0  0  0  0  0  0  0  0  0  0  0  0
    1.2464   -3.9215   37.9662 C   0  0  0  0  0  0  0  0  0  0  0  0
    0.4481   -2.9039   38.7738 C   0  0  0  0  0  0  0  0  0  0  0  0
   -0.9631   -3.4606   38.7259 C   0  0  0  0  0  0  0  0  0  0  0  0
   -0.7207   -4.9502   38.9123 C   0  0  0  0  0  0  0  0  0  0  0  0
    6.1207   -4.3805   29.3845 H   0  0  0  0  0  0  0  0  0  0  0  0
    4.7463   -4.3338   30.5090 H   0  0  0  0  0  0  0  0  0  0  0  0
    5.2982   -2.8454   29.7525 H   0  0  0  0  0  0  0  0  0  0  0  0
    4.6051   -3.7214   27.5023 H   0  0  0  0  0  0  0  0  0  0  0  0
    4.0400   -5.2247   28.2890 H   0  0  0  0  0  0  0  0  0  0  0  0
   -0.2603   -3.4929   28.1961 H   0  0  0  0  0  0  0  0  0  0  0  0
   -0.4842   -2.2149   30.1312 H   0  0  0  0  0  0  0  0  0  0  0  0
    2.4121   -1.8602   30.3800 H   0  0  0  0  0  0  0  0  0  0  0  0
    0.6327   -0.3783   31.4503 H   0  0  0  0  0  0  0  0  0  0  0  0
    2.1251   -0.7206   32.3015 H   0  0  0  0  0  0  0  0  0  0  0  0
   -0.6236   -1.8295   32.9217 H   0  0  0  0  0  0  0  0  0  0  0  0
    0.4108   -0.8393   33.9226 H   0  0  0  0  0  0  0  0  0  0  0  0
    2.0331   -2.6342   34.2187 H   0  0  0  0  0  0  0  0  0  0  0  0
    0.4442   -3.1752   34.7014 H   0  0  0  0  0  0  0  0  0  0  0  0
    3.0450   -3.2788   32.0711 H   0  0  0  0  0  0  0  0  0  0  0  0
    2.2588   -4.3509   30.9574 H   0  0  0  0  0  0  0  0  0  0  0  0
    1.4758   -5.3884   34.4365 H   0  0  0  0  0  0  0  0  0  0  0  0
    3.4741   -5.4676   34.5267 H   0  0  0  0  0  0  0  0  0  0  0  0
    2.5407   -6.4825   31.9599 H   0  0  0  0  0  0  0  0  0  0  0  0
    1.7631   -7.3396   33.2954 H   0  0  0  0  0  0  0  0  0  0  0  0
    0.9364   -7.0363   30.6665 H   0  0  0  0  0  0  0  0  0  0  0  0
   -0.3684   -8.3191   32.8671 H   0  0  0  0  0  0  0  0  0  0  0  0
   -1.5680   -7.4632   31.9218 H   0  0  0  0  0  0  0  0  0  0  0  0
   -0.5184   -8.5792   31.1216 H   0  0  0  0  0  0  0  0  0  0  0  0
    0.2006   -5.0673   30.5161 H   0  0  0  0  0  0  0  0  0  0  0  0
   -0.8365   -3.7618   32.0707 H   0  0  0  0  0  0  0  0  0  0  0  0
   -1.4018   -4.2948   34.1325 H   0  0  0  0  0  0  0  0  0  0  0  0
   -1.9301   -5.6312   33.0921 H   0  0  0  0  0  0  0  0  0  0  0  0
   -1.6377   -6.8468   34.8697 H   0  0  0  0  0  0  0  0  0  0  0  0
    0.0314   -6.9568   34.3886 H   0  0  0  0  0  0  0  0  0  0  0  0
   -1.2605   -5.2650   36.3656 H   0  0  0  0  0  0  0  0  0  0  0  0
    1.2340   -3.6472   36.9076 H   0  0  0  0  0  0  0  0  0  0  0  0
    2.2844   -3.9756   38.3059 H   0  0  0  0  0  0  0  0  0  0  0  0
    0.8081   -2.8771   39.8095 H   0  0  0  0  0  0  0  0  0  0  0  0
    0.5210   -1.8941   38.3606 H   0  0  0  0  0  0  0  0  0  0  0  0
   -1.6115   -3.0424   39.5006 H   0  0  0  0  0  0  0  0  0  0  0  0
   -1.4174   -3.2621   37.7480 H   0  0  0  0  0  0  0  0  0  0  0  0
   -0.5800   -5.1982   39.9702 H   0  0  0  0  0  0  0  0  0  0  0  0
   -1.5573   -5.5384   38.5364 H   0  0  0  0  0  0  0  0  0  0  0  0
  1  2  1  0
  2  3  1  0
  3  4  1  0
  4  5  2  0
  4  6  1  0
  6  7  2  3
  7  8  1  0
  8  9  1  0
  9 10  1  0
 10 11  1  0
 11 12  1  0
 12 13  1  0
 12 14  1  0
 14 15  1  0
 14 16  1  0
 16 17  1  0
 17 18  1  0
 17 19  1  0
 19 20  1  0
 20 21  1  0
 21 22  1  0
 22 23  1  0
 23 24  1  0
 24 25  2  0
 24 26  2  0
 24 27  1  0
 27 28  1  0
 28 29  1  0
 29 30  1  0
 30 31  1  0
 13  8  1  0
 31 27  1  0
 20 12  1  0
  1 32  1  0
  1 33  1  0
  1 34  1  0
  2 35  1  0
  2 36  1  0
  6 37  1  0
  7 38  1  0
  8 39  1  0
  9 40  1  0
  9 41  1  0
 10 42  1  0
 10 43  1  0
 11 44  1  0
 11 45  1  0
 13 46  1  0
 13 47  1  0
 14 48  1  0
 15 49  1  0
 16 50  1  0
 16 51  1  0
 17 52  1  0
 18 53  1  0
 18 54  1  0
 18 55  1  0
 19 56  1  0
 20 57  1  0
 21 58  1  0
 21 59  1  0
 22 60  1  0
 22 61  1  0
 23 62  1  0
 28 63  1  0
 28 64  1  0
 29 65  1  0
 29 66  1  0
 30 67  1  0
 30 68  1  0
 31 69  1  0
 31 70  1  0
M  END
>  <Energy>  (264) 
-101.68844567966256

>  <compound_id>  (264) 
298

>  <target_id>  (264) 
1

>  <reference_id>  (264) 
168

>  <inspiration_ids>  (264) 
[201, 168]

>  <energy_score>  (264) 
-64.98239785609348

>  <distance_score>  (264) 
2.1987702611380766

>  <path>  (264) 
/opt/xchem-fragalysis-2/maxwin/BulkDock/SCRATCH/505737/C298-P168/C298-P168.minimised.mol

>  <scratch_subdir>  (264) 
/opt/xchem-fragalysis-2/maxwin/BulkDock/SCRATCH/505737/C298-P168

>  <fragmenstein_runtime>  (264) 
13.394216299057007

>  <fragmenstein_outcome>  (264) 
too moved

>  <fragmenstein_mode>  (264) 
expansion

>  <fragmenstein_error>  (264) 


$$$$
C300-P201
     RDKit          3D

 45 46  0  0  0  0  0  0  0  0999 V2000
    6.6596   -4.7053   30.4841 C   0  0  0  0  0  0  0  0  0  0  0  0
    6.8629   -6.0816   29.8759 C   0  0  0  0  0  0  0  0  0  0  0  0
    5.6803   -6.4883   29.1647 O   0  0  0  0  0  0  0  0  0  0  0  0
    5.6578   -6.0977   27.8667 C   0  0  0  0  0  0  0  0  0  0  0  0
    6.5350   -5.4873   27.2812 O   0  0  0  0  0  0  0  0  0  0  0  0
    4.4500   -6.5901   27.1807 C   0  0  0  0  0  0  0  0  0  0  0  0
    3.1774   -6.6409   27.6121 C   0  0  0  0  0  0  0  0  0  0  0  0
    2.5623   -6.1825   28.8755 C   0  0  0  0  0  0  0  0  0  0  0  0
    1.4963   -6.9619   29.3855 C   0  0  0  0  0  0  0  0  0  0  0  0
    0.7605   -6.5683   30.5136 C   0  0  0  0  0  0  0  0  0  0  0  0
   -0.5628   -7.1919   30.8841 C   0  0  0  0  0  0  0  0  0  0  0  0
   -0.6984   -8.6176   30.7027 N   0  0  0  0  0  0  0  0  0  0  0  0
   -1.3665   -6.3691   31.2136 O   0  0  0  0  0  0  0  0  0  0  0  0
    1.1617   -5.4105   31.1925 C   0  0  0  0  0  0  0  0  0  0  0  0
    2.2186   -4.6265   30.7100 C   0  0  0  0  0  0  0  0  0  0  0  0
    2.8744   -4.9718   29.5202 C   0  0  0  0  0  0  0  0  0  0  0  0
    3.7003   -3.9826   28.8980 N   0  0  0  0  0  0  0  0  0  0  0  0
    3.1151   -3.1446   27.5326 S   0  0  0  0  0  0  0  0  0  0  0  0
    4.0579   -2.0820   27.2807 O   0  0  0  0  0  0  0  0  0  0  0  0
    2.7245   -4.0743   26.4932 O   0  0  0  0  0  0  0  0  0  0  0  0
    1.6378   -2.4094   28.1088 C   0  0  0  0  0  0  0  0  0  0  0  0
    1.4699   -1.0393   28.2153 C   0  0  0  0  0  0  0  0  0  0  0  0
    0.1962   -0.5681   28.5229 C   0  0  0  0  0  0  0  0  0  0  0  0
   -0.8342   -1.4842   28.7171 C   0  0  0  0  0  0  0  0  0  0  0  0
   -2.1528   -1.0864   28.8780 N   0  0  0  0  0  0  0  0  0  0  0  0
   -0.6543   -2.8061   28.7015 N   0  0  0  0  0  0  0  0  0  0  0  0
    0.5597   -3.2357   28.3423 C   0  0  0  0  0  0  0  0  0  0  0  0
    5.7613   -4.6852   31.1089 H   0  0  0  0  0  0  0  0  0  0  0  0
    7.5205   -4.4252   31.0980 H   0  0  0  0  0  0  0  0  0  0  0  0
    6.5327   -3.9484   29.7043 H   0  0  0  0  0  0  0  0  0  0  0  0
    7.0312   -6.8132   30.6716 H   0  0  0  0  0  0  0  0  0  0  0  0
    7.7531   -6.1094   29.2366 H   0  0  0  0  0  0  0  0  0  0  0  0
    4.6604   -6.8635   26.1470 H   0  0  0  0  0  0  0  0  0  0  0  0
    2.4617   -7.0038   26.8796 H   0  0  0  0  0  0  0  0  0  0  0  0
    1.2351   -7.8753   28.8593 H   0  0  0  0  0  0  0  0  0  0  0  0
    0.1794   -8.9922   30.2993 H   0  0  0  0  0  0  0  0  0  0  0  0
    0.2390   -9.0272   30.5262 H   0  0  0  0  0  0  0  0  0  0  0  0
    0.5908   -5.0586   32.0538 H   0  0  0  0  0  0  0  0  0  0  0  0
    2.4405   -3.6884   31.2159 H   0  0  0  0  0  0  0  0  0  0  0  0
    4.2377   -3.3537   29.4961 H   0  0  0  0  0  0  0  0  0  0  0  0
    2.2776   -0.3456   28.0023 H   0  0  0  0  0  0  0  0  0  0  0  0
   -0.0065    0.4967   28.5592 H   0  0  0  0  0  0  0  0  0  0  0  0
   -2.4228   -0.5343   28.0684 H   0  0  0  0  0  0  0  0  0  0  0  0
   -2.6804   -1.9628   28.8597 H   0  0  0  0  0  0  0  0  0  0  0  0
    0.6164   -4.3043   28.2150 H   0  0  0  0  0  0  0  0  0  0  0  0
  1  2  1  0
  2  3  1  0
  3  4  1  0
  4  5  2  0
  4  6  1  0
  6  7  2  3
  7  8  1  0
  8  9  2  0
  9 10  1  0
 10 11  1  0
 11 12  1  0
 11 13  2  0
 10 14  2  0
 14 15  1  0
 15 16  2  0
 16 17  1  0
 17 18  1  0
 18 19  2  0
 18 20  2  0
 18 21  1  0
 21 22  2  0
 22 23  1  0
 23 24  2  0
 24 25  1  0
 24 26  1  0
 26 27  2  0
 16  8  1  0
 27 21  1  0
  1 28  1  0
  1 29  1  0
  1 30  1  0
  2 31  1  0
  2 32  1  0
  6 33  1  0
  7 34  1  0
  9 35  1  0
 12 36  1  0
 12 37  1  0
 14 38  1  0
 15 39  1  0
 17 40  1  0
 22 41  1  0
 23 42  1  0
 25 43  1  0
 25 44  1  0
 27 45  1  0
M  END
>  <Energy>  (265) 
119.76549811776444

>  <compound_id>  (265) 
300

>  <target_id>  (265) 
1

>  <reference_id>  (265) 
201

>  <inspiration_ids>  (265) 
[201, 177]

>  <energy_score>  (265) 
133.40673313647338

>  <distance_score>  (265) 
3.3446969702889464

>  <path>  (265) 
/opt/xchem-fragalysis-2/maxwin/BulkDock/SCRATCH/505737/C300-P201/C300-P201.minimised.mol

>  <scratch_subdir>  (265) 
/opt/xchem-fragalysis-2/maxwin/BulkDock/SCRATCH/505737/C300-P201

>  <fragmenstein_runtime>  (265) 
7.622891426086426

>  <fragmenstein_outcome>  (265) 
too moved

>  <fragmenstein_mode>  (265) 
expansion

>  <fragmenstein_error>  (265) 


$$$$
C300-P177
     RDKit          3D

 45 46  0  0  0  0  0  0  0  0999 V2000
    6.4258   -3.1675   30.2580 C   0  0  0  0  0  0  0  0  0  0  0  0
    6.2896   -4.1962   29.1532 C   0  0  0  0  0  0  0  0  0  0  0  0
    4.9106   -4.2379   28.7501 O   0  0  0  0  0  0  0  0  0  0  0  0
    4.6125   -5.2799   27.9437 C   0  0  0  0  0  0  0  0  0  0  0  0
    5.3840   -6.1492   27.5743 O   0  0  0  0  0  0  0  0  0  0  0  0
    3.2044   -5.2421   27.5143 C   0  0  0  0  0  0  0  0  0  0  0  0
    2.0447   -5.0251   28.1613 C   0  0  0  0  0  0  0  0  0  0  0  0
    1.6348   -4.7175   29.5476 C   0  0  0  0  0  0  0  0  0  0  0  0
    0.6124   -5.5427   30.0638 C   0  0  0  0  0  0  0  0  0  0  0  0
    0.0887   -5.4014   31.3635 C   0  0  0  0  0  0  0  0  0  0  0  0
   -0.8517   -6.4976   31.8432 C   0  0  0  0  0  0  0  0  0  0  0  0
   -0.9873   -6.6317   33.2728 N   0  0  0  0  0  0  0  0  0  0  0  0
   -1.3407   -7.1312   30.9500 O   0  0  0  0  0  0  0  0  0  0  0  0
    0.4779   -4.2799   32.0960 C   0  0  0  0  0  0  0  0  0  0  0  0
    1.4577   -3.4155   31.5840 C   0  0  0  0  0  0  0  0  0  0  0  0
    2.0649   -3.6486   30.3418 C   0  0  0  0  0  0  0  0  0  0  0  0
    3.0519   -2.7192   29.9015 N   0  0  0  0  0  0  0  0  0  0  0  0
    2.5719   -1.2435   29.2338 S   0  0  0  0  0  0  0  0  0  0  0  0
    1.7639   -0.5484   30.2111 O   0  0  0  0  0  0  0  0  0  0  0  0
    3.7538   -0.6445   28.6571 O   0  0  0  0  0  0  0  0  0  0  0  0
    1.5135   -1.7502   27.9409 C   0  0  0  0  0  0  0  0  0  0  0  0
    1.9900   -2.1671   26.7048 C   0  0  0  0  0  0  0  0  0  0  0  0
    1.0720   -2.7027   25.8035 C   0  0  0  0  0  0  0  0  0  0  0  0
   -0.2685   -2.7823   26.1746 C   0  0  0  0  0  0  0  0  0  0  0  0
   -1.2568   -3.2086   25.3092 N   0  0  0  0  0  0  0  0  0  0  0  0
   -0.7263   -2.3292   27.3490 N   0  0  0  0  0  0  0  0  0  0  0  0
    0.1628   -1.8112   28.2097 C   0  0  0  0  0  0  0  0  0  0  0  0
    5.7889   -3.4280   31.1097 H   0  0  0  0  0  0  0  0  0  0  0  0
    7.4621   -3.1009   30.6012 H   0  0  0  0  0  0  0  0  0  0  0  0
    6.1081   -2.1797   29.9089 H   0  0  0  0  0  0  0  0  0  0  0  0
    6.6084   -5.1749   29.5299 H   0  0  0  0  0  0  0  0  0  0  0  0
    6.9060   -3.9106   28.2941 H   0  0  0  0  0  0  0  0  0  0  0  0
    3.1423   -5.5315   26.4657 H   0  0  0  0  0  0  0  0  0  0  0  0
    1.1567   -5.1399   27.5364 H   0  0  0  0  0  0  0  0  0  0  0  0
    0.2376   -6.3590   29.4401 H   0  0  0  0  0  0  0  0  0  0  0  0
   -0.3277   -5.9853   33.7356 H   0  0  0  0  0  0  0  0  0  0  0  0
   -0.5135   -5.8384   33.7315 H   0  0  0  0  0  0  0  0  0  0  0  0
    0.0328   -4.0107   33.0489 H   0  0  0  0  0  0  0  0  0  0  0  0
    1.7552   -2.5445   32.1688 H   0  0  0  0  0  0  0  0  0  0  0  0
    3.8197   -3.1134   29.3508 H   0  0  0  0  0  0  0  0  0  0  0  0
    3.0413   -2.0862   26.4400 H   0  0  0  0  0  0  0  0  0  0  0  0
    1.3953   -3.0124   24.8138 H   0  0  0  0  0  0  0  0  0  0  0  0
   -2.0998   -3.3045   25.8855 H   0  0  0  0  0  0  0  0  0  0  0  0
   -1.0508   -4.0247   24.7526 H   0  0  0  0  0  0  0  0  0  0  0  0
   -0.2626   -1.4773   29.1517 H   0  0  0  0  0  0  0  0  0  0  0  0
  1  2  1  0
  2  3  1  0
  3  4  1  0
  4  5  2  0
  4  6  1  0
  6  7  2  3
  7  8  1  0
  8  9  2  0
  9 10  1  0
 10 11  1  0
 11 12  1  0
 11 13  2  0
 10 14  2  0
 14 15  1  0
 15 16  2  0
 16 17  1  0
 17 18  1  0
 18 19  2  0
 18 20  2  0
 18 21  1  0
 21 22  2  0
 22 23  1  0
 23 24  2  0
 24 25  1  0
 24 26  1  0
 26 27  2  0
 16  8  1  0
 27 21  1  0
  1 28  1  0
  1 29  1  0
  1 30  1  0
  2 31  1  0
  2 32  1  0
  6 33  1  0
  7 34  1  0
  9 35  1  0
 12 36  1  0
 12 37  1  0
 14 38  1  0
 15 39  1  0
 17 40  1  0
 22 41  1  0
 23 42  1  0
 25 43  1  0
 25 44  1  0
 27 45  1  0
M  END
>  <Energy>  (266) 
113.75011846793251

>  <compound_id>  (266) 
300

>  <target_id>  (266) 
1

>  <reference_id>  (266) 
177

>  <inspiration_ids>  (266) 
[201, 177]

>  <energy_score>  (266) 
127.39135348664968

>  <distance_score>  (266) 
2.6088557309263316

>  <path>  (266) 
/opt/xchem-fragalysis-2/maxwin/BulkDock/SCRATCH/505737/C300-P177/C300-P177.minimised.mol

>  <scratch_subdir>  (266) 
/opt/xchem-fragalysis-2/maxwin/BulkDock/SCRATCH/505737/C300-P177

>  <fragmenstein_runtime>  (266) 
7.758592844009399

>  <fragmenstein_outcome>  (266) 
too moved

>  <fragmenstein_mode>  (266) 
expansion

>  <fragmenstein_error>  (266) 


$$$$
C300-P201
     RDKit          2D

  0  0  0  0  0  0  0  0  0  0999 V2000
M  END
>  <compound_id>  (267) 
300

>  <target_id>  (267) 
1

>  <reference_id>  (267) 
201

>  <inspiration_ids>  (267) 
[201, 183]

>  <energy_score>  (267) 
nan

>  <distance_score>  (267) 
nan

>  <path>  (267) 
/opt/xchem-fragalysis-2/maxwin/BulkDock/SCRATCH/505737/C300-P201/C300-P201.minimised.mol

>  <scratch_subdir>  (267) 
/opt/xchem-fragalysis-2/maxwin/BulkDock/SCRATCH/505737/C300-P201

>  <fragmenstein_runtime>  (267) 
0.29003262519836426

>  <fragmenstein_outcome>  (267) 
too distant

>  <fragmenstein_mode>  (267) 
expansion

>  <fragmenstein_error>  (267) 
DistanceError: hit1

$$$$
C308-P201
     RDKit          3D

 53 55  0  0  0  0  0  0  0  0999 V2000
    2.2657   -5.9402   28.7119 C   0  0  0  0  0  0  0  0  0  0  0  0
    0.9811   -5.7540   29.4977 C   0  0  0  0  0  0  0  0  0  0  0  0
    0.4348   -7.0160   30.1456 C   0  0  0  0  0  0  0  0  0  0  0  0
   -0.7216   -6.4270   30.8937 C   0  0  0  0  0  0  0  0  0  0  0  0
   -0.2622   -5.1482   31.3735 O   0  0  0  0  0  0  0  0  0  0  0  0
    0.9320   -4.7749   30.6514 C   0  0  0  0  0  0  0  0  0  0  0  0
    2.1785   -4.8812   31.4709 C   0  0  0  0  0  0  0  0  0  0  0  0
    2.3922   -5.3490   32.7093 C   0  0  0  0  0  0  0  0  0  0  0  0
    1.3433   -5.6545   33.6547 C   0  0  0  0  0  0  0  0  0  0  0  0
    0.6220   -6.8110   33.6704 C   0  0  0  0  0  0  0  0  0  0  0  0
   -0.5540   -6.7146   34.3424 C   0  0  0  0  0  0  0  0  0  0  0  0
   -1.4635   -7.7177   34.1844 O   0  0  0  0  0  0  0  0  0  0  0  0
   -0.9707   -5.6327   35.0098 N   0  0  0  0  0  0  0  0  0  0  0  0
   -0.1894   -4.5450   34.9017 C   0  0  0  0  0  0  0  0  0  0  0  0
   -0.7134   -3.1577   35.1657 C   0  0  0  0  0  0  0  0  0  0  0  0
   -0.1716   -2.1248   34.1516 C   0  0  0  0  0  0  0  0  0  0  0  0
   -0.3963   -2.4436   32.7042 N   0  0  0  0  0  0  0  0  0  0  0  0
   -1.7911   -1.9067   31.9835 S   0  0  0  0  0  0  0  0  0  0  0  0
   -2.6546   -3.0399   31.7519 O   0  0  0  0  0  0  0  0  0  0  0  0
   -2.2606   -0.7253   32.6672 O   0  0  0  0  0  0  0  0  0  0  0  0
   -1.1700   -1.4128   30.4818 N   0  0  0  0  0  0  0  0  0  0  0  0
   -2.2768   -1.1566   29.4982 C   0  0  0  0  0  0  0  0  0  0  0  0
   -1.7313   -0.6234   28.1825 C   0  0  0  0  0  0  0  0  0  0  0  0
   -1.0244    0.6020   28.3991 O   0  0  0  0  0  0  0  0  0  0  0  0
    0.1232    0.3374   29.2046 C   0  0  0  0  0  0  0  0  0  0  0  0
   -0.2560   -0.2246   30.5783 C   0  0  0  0  0  0  0  0  0  0  0  0
    1.0146   -4.5610   34.3351 N   0  0  0  0  0  0  0  0  0  0  0  0
    3.1010   -6.2593   29.3399 H   0  0  0  0  0  0  0  0  0  0  0  0
    2.5571   -5.0002   28.2313 H   0  0  0  0  0  0  0  0  0  0  0  0
    2.1517   -6.6967   27.9298 H   0  0  0  0  0  0  0  0  0  0  0  0
    0.2454   -5.3210   28.8241 H   0  0  0  0  0  0  0  0  0  0  0  0
    0.1450   -7.8361   29.4884 H   0  0  0  0  0  0  0  0  0  0  0  0
    1.1403   -7.4244   30.8604 H   0  0  0  0  0  0  0  0  0  0  0  0
   -1.1008   -7.0558   31.6960 H   0  0  0  0  0  0  0  0  0  0  0  0
   -1.5366   -6.2955   30.1936 H   0  0  0  0  0  0  0  0  0  0  0  0
    0.8175   -3.7423   30.3049 H   0  0  0  0  0  0  0  0  0  0  0  0
    3.0680   -4.5224   30.9523 H   0  0  0  0  0  0  0  0  0  0  0  0
    3.3906   -5.3156   33.1362 H   0  0  0  0  0  0  0  0  0  0  0  0
    0.8502   -7.6690   33.0733 H   0  0  0  0  0  0  0  0  0  0  0  0
   -2.0756   -7.5257   34.9213 H   0  0  0  0  0  0  0  0  0  0  0  0
   -1.7999   -3.1212   35.1657 H   0  0  0  0  0  0  0  0  0  0  0  0
   -0.3922   -2.8652   36.1723 H   0  0  0  0  0  0  0  0  0  0  0  0
    0.9152   -2.0269   34.2748 H   0  0  0  0  0  0  0  0  0  0  0  0
   -0.5663   -1.1318   34.3914 H   0  0  0  0  0  0  0  0  0  0  0  0
   -0.2596   -3.4415   32.4928 H   0  0  0  0  0  0  0  0  0  0  0  0
   -2.9614   -0.4229   29.9329 H   0  0  0  0  0  0  0  0  0  0  0  0
   -2.8175   -2.0870   29.3118 H   0  0  0  0  0  0  0  0  0  0  0  0
   -1.0447   -1.3531   27.7511 H   0  0  0  0  0  0  0  0  0  0  0  0
   -2.5428   -0.4264   27.4778 H   0  0  0  0  0  0  0  0  0  0  0  0
    0.7880   -0.3535   28.6715 H   0  0  0  0  0  0  0  0  0  0  0  0
    0.6683    1.2786   29.3302 H   0  0  0  0  0  0  0  0  0  0  0  0
    0.6613   -0.5169   31.1004 H   0  0  0  0  0  0  0  0  0  0  0  0
   -0.7375    0.5645   31.1585 H   0  0  0  0  0  0  0  0  0  0  0  0
  1  2  1  0
  2  3  1  0
  3  4  1  0
  4  5  1  0
  5  6  1  0
  6  7  1  0
  7  8  2  3
  8  9  1  0
  9 10  2  0
 10 11  1  0
 11 12  1  0
 11 13  2  0
 13 14  1  0
 14 15  1  0
 15 16  1  0
 16 17  1  0
 17 18  1  0
 18 19  2  0
 18 20  2  0
 18 21  1  0
 21 22  1  0
 22 23  1  0
 23 24  1  0
 24 25  1  0
 25 26  1  0
 14 27  2  0
  6  2  1  0
 27  9  1  0
 26 21  1  0
  1 28  1  0
  1 29  1  0
  1 30  1  0
  2 31  1  0
  3 32  1  0
  3 33  1  0
  4 34  1  0
  4 35  1  0
  6 36  1  0
  7 37  1  0
  8 38  1  0
 10 39  1  0
 12 40  1  0
 15 41  1  0
 15 42  1  0
 16 43  1  0
 16 44  1  0
 17 45  1  0
 22 46  1  0
 22 47  1  0
 23 48  1  0
 23 49  1  0
 25 50  1  0
 25 51  1  0
 26 52  1  0
 26 53  1  0
M  END
>  <Energy>  (268) 
-159.79748424866503

>  <compound_id>  (268) 
308

>  <target_id>  (268) 
1

>  <reference_id>  (268) 
201

>  <inspiration_ids>  (268) 
[201, 188]

>  <energy_score>  (268) 
-70.80144800409892

>  <distance_score>  (268) 
1.6280115127510777

>  <path>  (268) 
/opt/xchem-fragalysis-2/maxwin/BulkDock/SCRATCH/505737/C308-P201/C308-P201.minimised.mol

>  <scratch_subdir>  (268) 
/opt/xchem-fragalysis-2/maxwin/BulkDock/SCRATCH/505737/C308-P201

>  <fragmenstein_runtime>  (268) 
8.920563459396362

>  <fragmenstein_outcome>  (268) 
too moved

>  <fragmenstein_mode>  (268) 
expansion

>  <fragmenstein_error>  (268) 


$$$$
C308-P188
     RDKit          3D

 53 55  0  0  0  0  0  0  0  0999 V2000
    1.9973   -5.7645   28.9049 C   0  0  0  0  0  0  0  0  0  0  0  0
    0.7139   -5.6384   29.7289 C   0  0  0  0  0  0  0  0  0  0  0  0
    0.1064   -6.9234   30.2639 C   0  0  0  0  0  0  0  0  0  0  0  0
   -0.7699   -6.4516   31.3827 C   0  0  0  0  0  0  0  0  0  0  0  0
   -0.3621   -5.1242   31.7233 O   0  0  0  0  0  0  0  0  0  0  0  0
    0.8048   -4.7759   30.9696 C   0  0  0  0  0  0  0  0  0  0  0  0
    2.0610   -4.9626   31.7625 C   0  0  0  0  0  0  0  0  0  0  0  0
    2.2610   -5.3558   33.0309 C   0  0  0  0  0  0  0  0  0  0  0  0
    1.1982   -5.4968   34.0036 C   0  0  0  0  0  0  0  0  0  0  0  0
    0.5081   -6.6547   34.2019 C   0  0  0  0  0  0  0  0  0  0  0  0
   -0.7272   -6.4606   34.7402 C   0  0  0  0  0  0  0  0  0  0  0  0
   -1.6444   -7.4625   34.6351 O   0  0  0  0  0  0  0  0  0  0  0  0
   -1.2025   -5.2919   35.1887 N   0  0  0  0  0  0  0  0  0  0  0  0
   -0.4214   -4.2242   34.9672 C   0  0  0  0  0  0  0  0  0  0  0  0
   -0.9723   -2.8248   35.0633 C   0  0  0  0  0  0  0  0  0  0  0  0
   -0.3052   -1.8699   34.0483 C   0  0  0  0  0  0  0  0  0  0  0  0
   -0.5020   -2.2587   32.6072 N   0  0  0  0  0  0  0  0  0  0  0  0
   -1.9670   -1.8465   31.9229 S   0  0  0  0  0  0  0  0  0  0  0  0
   -2.6440   -3.0773   31.5967 O   0  0  0  0  0  0  0  0  0  0  0  0
   -2.5672   -0.8224   32.7433 O   0  0  0  0  0  0  0  0  0  0  0  0
   -1.4581   -1.1145   30.5274 N   0  0  0  0  0  0  0  0  0  0  0  0
   -1.1340   -1.8743   29.3200 C   0  0  0  0  0  0  0  0  0  0  0  0
   -1.3650   -1.0149   28.0659 C   0  0  0  0  0  0  0  0  0  0  0  0
   -1.3629    0.4026   28.2830 O   0  0  0  0  0  0  0  0  0  0  0  0
   -0.3980    0.7595   29.2644 C   0  0  0  0  0  0  0  0  0  0  0  0
   -0.7635    0.1825   30.6357 C   0  0  0  0  0  0  0  0  0  0  0  0
    0.8054   -4.3047   34.4502 N   0  0  0  0  0  0  0  0  0  0  0  0
    2.8931   -5.8997   29.5107 H   0  0  0  0  0  0  0  0  0  0  0  0
    2.1542   -4.8508   28.3205 H   0  0  0  0  0  0  0  0  0  0  0  0
    1.9967   -6.6139   28.2212 H   0  0  0  0  0  0  0  0  0  0  0  0
   -0.0486   -5.1441   29.1169 H   0  0  0  0  0  0  0  0  0  0  0  0
   -0.4833   -7.5195   29.5694 H   0  0  0  0  0  0  0  0  0  0  0  0
    0.8512   -7.5908   30.6774 H   0  0  0  0  0  0  0  0  0  0  0  0
   -0.6994   -7.1487   32.2089 H   0  0  0  0  0  0  0  0  0  0  0  0
   -1.8195   -6.4608   31.1379 H   0  0  0  0  0  0  0  0  0  0  0  0
    0.7471   -3.7199   30.6968 H   0  0  0  0  0  0  0  0  0  0  0  0
    2.9671   -4.6813   31.2286 H   0  0  0  0  0  0  0  0  0  0  0  0
    3.2636   -5.3831   33.4467 H   0  0  0  0  0  0  0  0  0  0  0  0
    0.8029   -7.5972   33.7864 H   0  0  0  0  0  0  0  0  0  0  0  0
   -2.3134   -7.1517   35.2762 H   0  0  0  0  0  0  0  0  0  0  0  0
   -2.0521   -2.8225   34.9106 H   0  0  0  0  0  0  0  0  0  0  0  0
   -0.7843   -2.4576   36.0784 H   0  0  0  0  0  0  0  0  0  0  0  0
    0.7788   -1.8321   34.2165 H   0  0  0  0  0  0  0  0  0  0  0  0
   -0.6456   -0.8419   34.2128 H   0  0  0  0  0  0  0  0  0  0  0  0
   -0.3875   -3.2772   32.5043 H   0  0  0  0  0  0  0  0  0  0  0  0
   -1.7049   -2.8022   29.2388 H   0  0  0  0  0  0  0  0  0  0  0  0
   -0.0756   -2.1547   29.3609 H   0  0  0  0  0  0  0  0  0  0  0  0
   -0.5560   -1.2248   27.3706 H   0  0  0  0  0  0  0  0  0  0  0  0
   -2.3040   -1.2831   27.5828 H   0  0  0  0  0  0  0  0  0  0  0  0
    0.5879    0.3997   28.9437 H   0  0  0  0  0  0  0  0  0  0  0  0
   -0.3351    1.8508   29.3158 H   0  0  0  0  0  0  0  0  0  0  0  0
    0.1420    0.0968   31.2452 H   0  0  0  0  0  0  0  0  0  0  0  0
   -1.4377    0.8710   31.1411 H   0  0  0  0  0  0  0  0  0  0  0  0
  1  2  1  0
  2  3  1  0
  3  4  1  0
  4  5  1  0
  5  6  1  0
  6  7  1  0
  7  8  2  3
  8  9  1  0
  9 10  2  0
 10 11  1  0
 11 12  1  0
 11 13  2  0
 13 14  1  0
 14 15  1  0
 15 16  1  0
 16 17  1  0
 17 18  1  0
 18 19  2  0
 18 20  2  0
 18 21  1  0
 21 22  1  0
 22 23  1  0
 23 24  1  0
 24 25  1  0
 25 26  1  0
 14 27  2  0
  6  2  1  0
 27  9  1  0
 26 21  1  0
  1 28  1  0
  1 29  1  0
  1 30  1  0
  2 31  1  0
  3 32  1  0
  3 33  1  0
  4 34  1  0
  4 35  1  0
  6 36  1  0
  7 37  1  0
  8 38  1  0
 10 39  1  0
 12 40  1  0
 15 41  1  0
 15 42  1  0
 16 43  1  0
 16 44  1  0
 17 45  1  0
 22 46  1  0
 22 47  1  0
 23 48  1  0
 23 49  1  0
 25 50  1  0
 25 51  1  0
 26 52  1  0
 26 53  1  0
M  END
>  <Energy>  (269) 
-146.51480542312294

>  <compound_id>  (269) 
308

>  <target_id>  (269) 
1

>  <reference_id>  (269) 
188

>  <inspiration_ids>  (269) 
[201, 188]

>  <energy_score>  (269) 
-57.51876917855297

>  <distance_score>  (269) 
1.674788187196405

>  <path>  (269) 
/opt/xchem-fragalysis-2/maxwin/BulkDock/SCRATCH/505737/C308-P188/C308-P188.minimised.mol

>  <scratch_subdir>  (269) 
/opt/xchem-fragalysis-2/maxwin/BulkDock/SCRATCH/505737/C308-P188

>  <fragmenstein_runtime>  (269) 
8.568150520324707

>  <fragmenstein_outcome>  (269) 
too moved

>  <fragmenstein_mode>  (269) 
expansion

>  <fragmenstein_error>  (269) 


$$$$
C311-P201
     RDKit          3D

 52 54  0  0  0  0  0  0  0  0999 V2000
    1.6755   -4.1029   28.3140 C   0  0  0  0  0  0  0  0  0  0  0  0
    3.1285   -4.1742   28.6801 C   0  0  0  0  0  0  0  0  0  0  0  0
    4.0782   -4.0271   27.6615 C   0  0  0  0  0  0  0  0  0  0  0  0
    5.4348   -4.1019   27.9571 C   0  0  0  0  0  0  0  0  0  0  0  0
    5.8433   -4.3126   29.2664 C   0  0  0  0  0  0  0  0  0  0  0  0
    7.1522   -4.3866   29.5400 F   0  0  0  0  0  0  0  0  0  0  0  0
    4.9245   -4.4451   30.2940 C   0  0  0  0  0  0  0  0  0  0  0  0
    3.5675   -4.3701   30.0050 C   0  0  0  0  0  0  0  0  0  0  0  0
    2.6227   -4.5270   31.0089 N   0  0  0  0  0  0  0  0  0  0  0  0
    2.7481   -5.0242   32.3535 C   0  0  0  0  0  0  0  0  0  0  0  0
    3.7114   -5.3561   32.9781 O   0  0  0  0  0  0  0  0  0  0  0  0
    1.3985   -5.1972   32.9213 C   0  0  0  0  0  0  0  0  0  0  0  0
    0.7588   -6.3532   32.5483 C   0  0  0  0  0  0  0  0  0  0  0  0
   -0.5853   -6.2332   32.5096 C   0  0  0  0  0  0  0  0  0  0  0  0
   -1.3367   -7.2330   31.9814 O   0  0  0  0  0  0  0  0  0  0  0  0
   -1.2527   -5.1308   32.8420 N   0  0  0  0  0  0  0  0  0  0  0  0
   -0.5311   -4.0830   33.2992 C   0  0  0  0  0  0  0  0  0  0  0  0
   -1.2608   -2.8550   33.7700 C   0  0  0  0  0  0  0  0  0  0  0  0
   -0.5431   -1.5254   33.5641 C   0  0  0  0  0  0  0  0  0  0  0  0
   -0.0765   -1.2550   32.1845 N   0  0  0  0  0  0  0  0  0  0  0  0
   -1.1015   -1.5755   30.9060 S   0  0  0  0  0  0  0  0  0  0  0  0
   -2.4620   -1.3435   31.3289 O   0  0  0  0  0  0  0  0  0  0  0  0
   -0.6737   -2.8452   30.3677 O   0  0  0  0  0  0  0  0  0  0  0  0
   -0.6537   -0.3547   29.8626 N   0  0  0  0  0  0  0  0  0  0  0  0
    0.7932   -0.1565   29.5708 C   0  0  0  0  0  0  0  0  0  0  0  0
    1.0776   -0.0628   28.0727 C   0  0  0  0  0  0  0  0  0  0  0  0
    0.3301    0.9730   27.4415 O   0  0  0  0  0  0  0  0  0  0  0  0
   -1.0636    0.9542   27.7853 C   0  0  0  0  0  0  0  0  0  0  0  0
   -1.5044   -0.2438   28.6368 C   0  0  0  0  0  0  0  0  0  0  0  0
    0.8019   -4.0563   33.3117 N   0  0  0  0  0  0  0  0  0  0  0  0
    1.5470   -4.2084   27.2349 H   0  0  0  0  0  0  0  0  0  0  0  0
    1.2625   -3.1386   28.6140 H   0  0  0  0  0  0  0  0  0  0  0  0
    1.1123   -4.9105   28.7887 H   0  0  0  0  0  0  0  0  0  0  0  0
    3.7728   -3.8565   26.6312 H   0  0  0  0  0  0  0  0  0  0  0  0
    6.1812   -3.9940   27.1752 H   0  0  0  0  0  0  0  0  0  0  0  0
    5.2973   -4.5892   31.3026 H   0  0  0  0  0  0  0  0  0  0  0  0
    1.6356   -4.4255   30.7829 H   0  0  0  0  0  0  0  0  0  0  0  0
    1.2623   -7.2124   32.1486 H   0  0  0  0  0  0  0  0  0  0  0  0
   -2.2256   -6.8493   32.0757 H   0  0  0  0  0  0  0  0  0  0  0  0
   -2.2368   -2.8124   33.2797 H   0  0  0  0  0  0  0  0  0  0  0  0
   -1.4447   -2.9694   34.8449 H   0  0  0  0  0  0  0  0  0  0  0  0
   -1.1999   -0.7031   33.8709 H   0  0  0  0  0  0  0  0  0  0  0  0
    0.3382   -1.4803   34.2159 H   0  0  0  0  0  0  0  0  0  0  0  0
    0.8208   -1.7141   32.0181 H   0  0  0  0  0  0  0  0  0  0  0  0
    1.4035   -0.9626   29.9887 H   0  0  0  0  0  0  0  0  0  0  0  0
    1.0891    0.7788   30.0599 H   0  0  0  0  0  0  0  0  0  0  0  0
    0.8624   -1.0121   27.5729 H   0  0  0  0  0  0  0  0  0  0  0  0
    2.1390    0.1501   27.9095 H   0  0  0  0  0  0  0  0  0  0  0  0
   -1.6402    0.9882   26.8556 H   0  0  0  0  0  0  0  0  0  0  0  0
   -1.2633    1.8908   28.3145 H   0  0  0  0  0  0  0  0  0  0  0  0
   -2.5462   -0.1006   28.9309 H   0  0  0  0  0  0  0  0  0  0  0  0
   -1.4275   -1.1725   28.0632 H   0  0  0  0  0  0  0  0  0  0  0  0
  1  2  1  0
  2  3  2  0
  3  4  1  0
  4  5  2  0
  5  6  1  0
  5  7  1  0
  7  8  2  0
  8  9  1  0
  9 10  1  0
 10 11  2  0
 10 12  1  0
 12 13  2  0
 13 14  1  0
 14 15  1  0
 14 16  2  0
 16 17  1  0
 17 18  1  0
 18 19  1  0
 19 20  1  0
 20 21  1  0
 21 22  2  0
 21 23  2  0
 21 24  1  0
 24 25  1  0
 25 26  1  0
 26 27  1  0
 27 28  1  0
 28 29  1  0
 17 30  2  0
  8  2  1  0
 30 12  1  0
 29 24  1  0
  1 31  1  0
  1 32  1  0
  1 33  1  0
  3 34  1  0
  4 35  1  0
  7 36  1  0
  9 37  1  0
 13 38  1  0
 15 39  1  0
 18 40  1  0
 18 41  1  0
 19 42  1  0
 19 43  1  0
 20 44  1  0
 25 45  1  0
 25 46  1  0
 26 47  1  0
 26 48  1  0
 28 49  1  0
 28 50  1  0
 29 51  1  0
 29 52  1  0
M  END
>  <Energy>  (270) 
-142.89969209308626

>  <compound_id>  (270) 
311

>  <target_id>  (270) 
1

>  <reference_id>  (270) 
201

>  <inspiration_ids>  (270) 
[201, 194]

>  <energy_score>  (270) 
-90.909721171313

>  <distance_score>  (270) 
3.3464694161433512

>  <path>  (270) 
/opt/xchem-fragalysis-2/maxwin/BulkDock/SCRATCH/505737/C311-P201/C311-P201.minimised.mol

>  <scratch_subdir>  (270) 
/opt/xchem-fragalysis-2/maxwin/BulkDock/SCRATCH/505737/C311-P201

>  <fragmenstein_runtime>  (270) 
11.915838479995728

>  <fragmenstein_outcome>  (270) 
too moved

>  <fragmenstein_mode>  (270) 
expansion

>  <fragmenstein_error>  (270) 


$$$$
C311-P194
     RDKit          3D

 52 54  0  0  0  0  0  0  0  0999 V2000
    0.2812   -7.0484   30.7894 C   0  0  0  0  0  0  0  0  0  0  0  0
    1.0325   -5.7754   31.0342 C   0  0  0  0  0  0  0  0  0  0  0  0
    1.1060   -4.9128   29.9133 C   0  0  0  0  0  0  0  0  0  0  0  0
    1.9704   -3.8278   29.8736 C   0  0  0  0  0  0  0  0  0  0  0  0
    2.7919   -3.6119   30.9556 C   0  0  0  0  0  0  0  0  0  0  0  0
    3.6878   -2.6179   30.9257 F   0  0  0  0  0  0  0  0  0  0  0  0
    2.6782   -4.3958   32.0964 C   0  0  0  0  0  0  0  0  0  0  0  0
    1.6941   -5.4019   32.2217 C   0  0  0  0  0  0  0  0  0  0  0  0
    1.8196   -6.1011   33.4854 N   0  0  0  0  0  0  0  0  0  0  0  0
    0.8490   -6.0269   34.9227 C   0  0  0  0  0  0  0  0  0  0  0  0
   -0.2916   -5.3912   35.1993 O   0  0  0  0  0  0  0  0  0  0  0  0
    1.2843   -6.5737   35.9443 C   0  0  0  0  0  0  0  0  0  0  0  0
    0.1408   -7.4053   34.9031 C   0  0  0  0  0  0  0  0  0  0  0  0
   -0.6290   -6.4796   33.5999 C   0  0  0  0  0  0  0  0  0  0  0  0
   -1.6503   -6.9943   32.8838 O   0  0  0  0  0  0  0  0  0  0  0  0
   -0.2850   -4.8135   33.3612 N   0  0  0  0  0  0  0  0  0  0  0  0
    0.8641   -4.0471   34.4326 C   0  0  0  0  0  0  0  0  0  0  0  0
    0.9781   -2.5543   34.3885 C   0  0  0  0  0  0  0  0  0  0  0  0
    0.4509   -1.9645   33.0853 C   0  0  0  0  0  0  0  0  0  0  0  0
   -0.9503   -1.5503   33.1872 N   0  0  0  0  0  0  0  0  0  0  0  0
   -1.9712   -1.7254   31.8884 S   0  0  0  0  0  0  0  0  0  0  0  0
   -3.0296   -0.7605   32.0868 O   0  0  0  0  0  0  0  0  0  0  0  0
   -2.2648   -3.1190   31.6424 O   0  0  0  0  0  0  0  0  0  0  0  0
   -0.9957   -1.1597   30.6350 N   0  0  0  0  0  0  0  0  0  0  0  0
   -0.5385    0.2610   30.7147 C   0  0  0  0  0  0  0  0  0  0  0  0
   -0.8384    1.0450   29.4370 C   0  0  0  0  0  0  0  0  0  0  0  0
   -0.2278    0.4168   28.3165 O   0  0  0  0  0  0  0  0  0  0  0  0
   -0.6421   -0.9439   28.1633 C   0  0  0  0  0  0  0  0  0  0  0  0
   -1.5067   -1.5260   29.2833 C   0  0  0  0  0  0  0  0  0  0  0  0
    1.6975   -4.8981   35.7429 N   0  0  0  0  0  0  0  0  0  0  0  0
    0.6926   -7.5643   29.9160 H   0  0  0  0  0  0  0  0  0  0  0  0
   -0.7728   -6.8443   30.5832 H   0  0  0  0  0  0  0  0  0  0  0  0
    0.3687   -7.7472   31.6187 H   0  0  0  0  0  0  0  0  0  0  0  0
    0.4865   -5.1014   29.0442 H   0  0  0  0  0  0  0  0  0  0  0  0
    2.0275   -3.1814   29.0048 H   0  0  0  0  0  0  0  0  0  0  0  0
    3.3464   -4.1714   32.9259 H   0  0  0  0  0  0  0  0  0  0  0  0
    2.6670   -6.6190   33.6718 H   0  0  0  0  0  0  0  0  0  0  0  0
   -0.2323   -8.3924   35.1394 H   0  0  0  0  0  0  0  0  0  0  0  0
   -2.0008   -6.1496   32.5354 H   0  0  0  0  0  0  0  0  0  0  0  0
    0.4632   -2.1336   35.2585 H   0  0  0  0  0  0  0  0  0  0  0  0
    2.0434   -2.3170   34.4860 H   0  0  0  0  0  0  0  0  0  0  0  0
    0.5796   -2.6418   32.2438 H   0  0  0  0  0  0  0  0  0  0  0  0
    1.0304   -1.0593   32.8689 H   0  0  0  0  0  0  0  0  0  0  0  0
   -1.1638   -0.7384   33.7586 H   0  0  0  0  0  0  0  0  0  0  0  0
    0.5469    0.2297   30.8667 H   0  0  0  0  0  0  0  0  0  0  0  0
   -0.9755    0.7779   31.5736 H   0  0  0  0  0  0  0  0  0  0  0  0
   -0.4198    2.0532   29.5138 H   0  0  0  0  0  0  0  0  0  0  0  0
   -1.9147    1.1443   29.2571 H   0  0  0  0  0  0  0  0  0  0  0  0
    0.2678   -1.5396   28.0463 H   0  0  0  0  0  0  0  0  0  0  0  0
   -1.2126   -0.9958   27.2366 H   0  0  0  0  0  0  0  0  0  0  0  0
   -2.5236   -1.1459   29.1802 H   0  0  0  0  0  0  0  0  0  0  0  0
   -1.5385   -2.6150   29.1733 H   0  0  0  0  0  0  0  0  0  0  0  0
  1  2  1  0
  2  3  2  0
  3  4  1  0
  4  5  2  0
  5  6  1  0
  5  7  1  0
  7  8  2  0
  8  9  1  0
  9 10  1  0
 10 11  2  0
 10 12  1  0
 12 13  2  0
 13 14  1  0
 14 15  1  0
 14 16  2  0
 16 17  1  0
 17 18  1  0
 18 19  1  0
 19 20  1  0
 20 21  1  0
 21 22  2  0
 21 23  2  0
 21 24  1  0
 24 25  1  0
 25 26  1  0
 26 27  1  0
 27 28  1  0
 28 29  1  0
 17 30  2  0
  8  2  1  0
 30 12  1  0
 29 24  1  0
  1 31  1  0
  1 32  1  0
  1 33  1  0
  3 34  1  0
  4 35  1  0
  7 36  1  0
  9 37  1  0
 13 38  1  0
 15 39  1  0
 18 40  1  0
 18 41  1  0
 19 42  1  0
 19 43  1  0
 20 44  1  0
 25 45  1  0
 25 46  1  0
 26 47  1  0
 26 48  1  0
 28 49  1  0
 28 50  1  0
 29 51  1  0
 29 52  1  0
M  END
>  <Energy>  (271) 
633.04990444069301

>  <compound_id>  (271) 
311

>  <target_id>  (271) 
1

>  <reference_id>  (271) 
194

>  <inspiration_ids>  (271) 
[201, 194]

>  <energy_score>  (271) 
685.0398753624635

>  <distance_score>  (271) 
2.634157461599407

>  <path>  (271) 
/opt/xchem-fragalysis-2/maxwin/BulkDock/SCRATCH/505737/C311-P194/C311-P194.minimised.mol

>  <scratch_subdir>  (271) 
/opt/xchem-fragalysis-2/maxwin/BulkDock/SCRATCH/505737/C311-P194

>  <fragmenstein_runtime>  (271) 
12.276562452316284

>  <fragmenstein_outcome>  (271) 
too moved

>  <fragmenstein_mode>  (271) 
expansion

>  <fragmenstein_error>  (271) 


$$$$
C314-P201
     RDKit          3D

 40 42  0  0  0  0  0  0  0  0999 V2000
   -2.3012   -0.8231   32.7118 O   0  0  0  0  0  0  0  0  0  0  0  0
   -1.7946   -1.9304   31.9411 S   0  0  0  0  0  0  0  0  0  0  0  0
   -2.6514   -3.0200   31.5414 O   0  0  0  0  0  0  0  0  0  0  0  0
   -0.5332   -2.5930   32.8099 N   0  0  0  0  0  0  0  0  0  0  0  0
    0.3112   -3.5440   32.0786 C   0  0  0  0  0  0  0  0  0  0  0  0
    0.6753   -4.7344   32.9673 C   0  0  0  0  0  0  0  0  0  0  0  0
    0.2202   -5.9848   32.3278 C   0  0  0  0  0  0  0  0  0  0  0  0
   -0.7547   -6.7861   32.7156 N   0  0  0  0  0  0  0  0  0  0  0  0
   -0.8504   -7.7208   31.7380 C   0  0  0  0  0  0  0  0  0  0  0  0
   -1.7494   -8.7051   31.6952 O   0  0  0  0  0  0  0  0  0  0  0  0
    0.1032   -7.5333   30.7786 C   0  0  0  0  0  0  0  0  0  0  0  0
    0.5402   -8.1932   29.6053 C   0  0  0  0  0  0  0  0  0  0  0  0
    1.5215   -7.6362   28.8643 C   0  0  0  0  0  0  0  0  0  0  0  0
    2.0875   -6.3414   29.1777 C   0  0  0  0  0  0  0  0  0  0  0  0
    1.7346   -5.7657   30.3324 C   0  0  0  0  0  0  0  0  0  0  0  0
    0.7610   -6.3772   31.1315 N   0  0  0  0  0  0  0  0  0  0  0  0
   -0.9691   -1.3370   30.5958 N   0  0  0  0  0  0  0  0  0  0  0  0
   -1.8899   -0.9964   29.4561 C   0  0  0  0  0  0  0  0  0  0  0  0
   -1.1123   -0.4291   28.2681 C   0  0  0  0  0  0  0  0  0  0  0  0
   -0.3169    0.7014   28.6527 O   0  0  0  0  0  0  0  0  0  0  0  0
    0.6353    0.3099   29.6397 C   0  0  0  0  0  0  0  0  0  0  0  0
   -0.0596   -0.1882   30.9046 C   0  0  0  0  0  0  0  0  0  0  0  0
   -0.9732   -2.9980   33.6454 H   0  0  0  0  0  0  0  0  0  0  0  0
   -0.1779   -3.8539   31.1486 H   0  0  0  0  0  0  0  0  0  0  0  0
    1.2243   -3.0054   31.7983 H   0  0  0  0  0  0  0  0  0  0  0  0
    0.2327   -4.6609   33.9675 H   0  0  0  0  0  0  0  0  0  0  0  0
    1.7614   -4.7704   33.1187 H   0  0  0  0  0  0  0  0  0  0  0  0
   -2.2542   -8.6758   32.5312 H   0  0  0  0  0  0  0  0  0  0  0  0
    0.0988   -9.1459   29.3401 H   0  0  0  0  0  0  0  0  0  0  0  0
    1.8966   -8.1322   27.9748 H   0  0  0  0  0  0  0  0  0  0  0  0
    2.8152   -5.8988   28.5061 H   0  0  0  0  0  0  0  0  0  0  0  0
    2.1723   -4.8315   30.6529 H   0  0  0  0  0  0  0  0  0  0  0  0
   -2.4283   -1.8932   29.1368 H   0  0  0  0  0  0  0  0  0  0  0  0
   -2.6133   -0.2525   29.8031 H   0  0  0  0  0  0  0  0  0  0  0  0
   -0.4514   -1.1906   27.8430 H   0  0  0  0  0  0  0  0  0  0  0  0
   -1.8109   -0.0945   27.4964 H   0  0  0  0  0  0  0  0  0  0  0  0
    1.2492    1.1850   29.8755 H   0  0  0  0  0  0  0  0  0  0  0  0
    1.2991   -0.4572   29.2229 H   0  0  0  0  0  0  0  0  0  0  0  0
   -0.6364    0.6291   31.3432 H   0  0  0  0  0  0  0  0  0  0  0  0
    0.7041   -0.4989   31.6240 H   0  0  0  0  0  0  0  0  0  0  0  0
  1  2  2  0
  2  3  2  0
  2  4  1  0
  4  5  1  0
  5  6  1  0
  6  7  1  0
  7  8  2  0
  8  9  1  0
  9 10  1  0
  9 11  2  0
 11 12  1  0
 12 13  2  0
 13 14  1  0
 14 15  2  0
 15 16  1  0
  2 17  1  0
 17 18  1  0
 18 19  1  0
 19 20  1  0
 20 21  1  0
 21 22  1  0
 16  7  1  0
 22 17  1  0
 16 11  1  0
  4 23  1  0
  5 24  1  0
  5 25  1  0
  6 26  1  0
  6 27  1  0
 10 28  1  0
 12 29  1  0
 13 30  1  0
 14 31  1  0
 15 32  1  0
 18 33  1  0
 18 34  1  0
 19 35  1  0
 19 36  1  0
 21 37  1  0
 21 38  1  0
 22 39  1  0
 22 40  1  0
M  END
>  <Energy>  (272) 
-128.41273507253172

>  <compound_id>  (272) 
314

>  <target_id>  (272) 
1

>  <reference_id>  (272) 
201

>  <inspiration_ids>  (272) 
[201, 197]

>  <energy_score>  (272) 
-74.1796151595758

>  <distance_score>  (272) 
1.5315156630692934

>  <path>  (272) 
/opt/xchem-fragalysis-2/maxwin/BulkDock/SCRATCH/505737/C314-P201/C314-P201.minimised.mol

>  <scratch_subdir>  (272) 
/opt/xchem-fragalysis-2/maxwin/BulkDock/SCRATCH/505737/C314-P201

>  <fragmenstein_runtime>  (272) 
13.984025239944458

>  <fragmenstein_outcome>  (272) 
too moved

>  <fragmenstein_mode>  (272) 
expansion

>  <fragmenstein_error>  (272) 


$$$$
C314-P197
     RDKit          3D

 40 42  0  0  0  0  0  0  0  0999 V2000
   -2.5143   -0.7448   32.3005 O   0  0  0  0  0  0  0  0  0  0  0  0
   -1.8352   -1.9108   31.7934 S   0  0  0  0  0  0  0  0  0  0  0  0
   -2.5141   -3.1462   31.4891 O   0  0  0  0  0  0  0  0  0  0  0  0
   -0.6299   -2.2475   32.8774 N   0  0  0  0  0  0  0  0  0  0  0  0
    0.2767   -3.3267   32.5463 C   0  0  0  0  0  0  0  0  0  0  0  0
    0.1763   -4.4678   33.5756 C   0  0  0  0  0  0  0  0  0  0  0  0
    0.0468   -5.7921   32.9202 C   0  0  0  0  0  0  0  0  0  0  0  0
   -0.8700   -6.7231   33.1329 N   0  0  0  0  0  0  0  0  0  0  0  0
   -0.8335   -7.5092   32.0289 C   0  0  0  0  0  0  0  0  0  0  0  0
   -1.6741   -8.5111   31.7549 O   0  0  0  0  0  0  0  0  0  0  0  0
    0.1442   -7.0933   31.1744 C   0  0  0  0  0  0  0  0  0  0  0  0
    0.5983   -7.4288   29.8864 C   0  0  0  0  0  0  0  0  0  0  0  0
    1.5491   -6.6572   29.3034 C   0  0  0  0  0  0  0  0  0  0  0  0
    2.2098   -5.5800   29.9944 C   0  0  0  0  0  0  0  0  0  0  0  0
    1.8929   -5.3842   31.2768 C   0  0  0  0  0  0  0  0  0  0  0  0
    0.8059   -6.0780   31.8185 N   0  0  0  0  0  0  0  0  0  0  0  0
   -0.8812   -1.4506   30.4932 N   0  0  0  0  0  0  0  0  0  0  0  0
   -1.4334   -1.7134   29.1369 C   0  0  0  0  0  0  0  0  0  0  0  0
   -0.3707   -1.4408   28.0652 C   0  0  0  0  0  0  0  0  0  0  0  0
    0.3316   -0.1940   28.2008 O   0  0  0  0  0  0  0  0  0  0  0  0
   -0.1770    0.6131   29.2629 C   0  0  0  0  0  0  0  0  0  0  0  0
   -0.1546   -0.1537   30.5880 C   0  0  0  0  0  0  0  0  0  0  0  0
   -0.2779   -1.4415   33.3830 H   0  0  0  0  0  0  0  0  0  0  0  0
    0.0732   -3.6596   31.5250 H   0  0  0  0  0  0  0  0  0  0  0  0
    1.2870   -2.9012   32.5562 H   0  0  0  0  0  0  0  0  0  0  0  0
    1.0669   -4.4660   34.2157 H   0  0  0  0  0  0  0  0  0  0  0  0
   -0.6842   -4.3188   34.2390 H   0  0  0  0  0  0  0  0  0  0  0  0
   -2.2395   -8.6307   32.5423 H   0  0  0  0  0  0  0  0  0  0  0  0
    0.2002   -8.3310   29.4294 H   0  0  0  0  0  0  0  0  0  0  0  0
    1.9926   -6.9159   28.3454 H   0  0  0  0  0  0  0  0  0  0  0  0
    3.0073   -5.0351   29.5010 H   0  0  0  0  0  0  0  0  0  0  0  0
    2.4070   -4.6538   31.8846 H   0  0  0  0  0  0  0  0  0  0  0  0
   -1.7612   -2.7522   29.0528 H   0  0  0  0  0  0  0  0  0  0  0  0
   -2.2854   -1.0524   28.9703 H   0  0  0  0  0  0  0  0  0  0  0  0
    0.3898   -2.2293   28.0910 H   0  0  0  0  0  0  0  0  0  0  0  0
   -0.8277   -1.4646   27.0706 H   0  0  0  0  0  0  0  0  0  0  0  0
   -1.1852    0.9597   29.0069 H   0  0  0  0  0  0  0  0  0  0  0  0
    0.4596    1.5005   29.3392 H   0  0  0  0  0  0  0  0  0  0  0  0
   -0.5591    0.4873   31.3763 H   0  0  0  0  0  0  0  0  0  0  0  0
    0.8829   -0.3937   30.8494 H   0  0  0  0  0  0  0  0  0  0  0  0
  1  2  2  0
  2  3  2  0
  2  4  1  0
  4  5  1  0
  5  6  1  0
  6  7  1  0
  7  8  2  0
  8  9  1  0
  9 10  1  0
  9 11  2  0
 11 12  1  0
 12 13  2  0
 13 14  1  0
 14 15  2  0
 15 16  1  0
  2 17  1  0
 17 18  1  0
 18 19  1  0
 19 20  1  0
 20 21  1  0
 21 22  1  0
 16  7  1  0
 22 17  1  0
 16 11  1  0
  4 23  1  0
  5 24  1  0
  5 25  1  0
  6 26  1  0
  6 27  1  0
 10 28  1  0
 12 29  1  0
 13 30  1  0
 14 31  1  0
 15 32  1  0
 18 33  1  0
 18 34  1  0
 19 35  1  0
 19 36  1  0
 21 37  1  0
 21 38  1  0
 22 39  1  0
 22 40  1  0
M  END
>  <Energy>  (273) 
-110.47708014331116

>  <compound_id>  (273) 
314

>  <target_id>  (273) 
1

>  <reference_id>  (273) 
197

>  <inspiration_ids>  (273) 
[201, 197]

>  <energy_score>  (273) 
-56.2439602303526

>  <distance_score>  (273) 
1.5569678490374301

>  <path>  (273) 
/opt/xchem-fragalysis-2/maxwin/BulkDock/SCRATCH/505737/C314-P197/C314-P197.minimised.mol

>  <scratch_subdir>  (273) 
/opt/xchem-fragalysis-2/maxwin/BulkDock/SCRATCH/505737/C314-P197

>  <fragmenstein_runtime>  (273) 
13.383114576339722

>  <fragmenstein_outcome>  (273) 
too moved

>  <fragmenstein_mode>  (273) 
expansion

>  <fragmenstein_error>  (273) 


$$$$
C318-P201
     RDKit          3D

 64 67  0  0  0  0  0  0  0  0999 V2000
    4.5512   -7.7709   25.2407 C   0  0  0  0  0  0  0  0  0  0  0  0
    3.9429   -6.8169   26.1308 N   0  0  0  0  0  0  0  0  0  0  0  0
    2.9001   -7.0161   27.2574 C   0  0  0  0  0  0  0  0  0  0  0  0
    2.3162   -7.9713   27.5869 O   0  0  0  0  0  0  0  0  0  0  0  0
    2.6932   -5.6638   27.9283 C   0  0  0  0  0  0  0  0  0  0  0  0
    2.3010   -5.7027   29.3946 C   0  0  0  0  0  0  0  0  0  0  0  0
    1.2487   -6.4674   29.9424 C   0  0  0  0  0  0  0  0  0  0  0  0
    0.8362   -6.3135   31.2677 C   0  0  0  0  0  0  0  0  0  0  0  0
    1.4941   -5.3869   32.0684 C   0  0  0  0  0  0  0  0  0  0  0  0
    0.8957   -4.8250   33.3323 C   0  0  0  0  0  0  0  0  0  0  0  0
   -0.5834   -4.3319   33.1370 C   0  0  0  0  0  0  0  0  0  0  0  0
   -0.8853   -3.5636   31.8800 N   0  0  0  0  0  0  0  0  0  0  0  0
   -0.2943   -2.0301   31.8576 S   0  0  0  0  0  0  0  0  0  0  0  0
   -0.9287   -1.2547   32.8929 O   0  0  0  0  0  0  0  0  0  0  0  0
    1.1298   -2.1741   31.7813 O   0  0  0  0  0  0  0  0  0  0  0  0
   -0.8126   -1.4220   30.3946 N   0  0  0  0  0  0  0  0  0  0  0  0
   -0.3444    0.0072   30.2798 C   0  0  0  0  0  0  0  0  0  0  0  0
   -0.3512    0.4780   28.8317 C   0  0  0  0  0  0  0  0  0  0  0  0
    0.6205   -0.2412   28.0586 O   0  0  0  0  0  0  0  0  0  0  0  0
    0.7646   -1.6052   28.4766 C   0  0  0  0  0  0  0  0  0  0  0  0
   -0.4922   -2.1720   29.1410 C   0  0  0  0  0  0  0  0  0  0  0  0
   -0.8661   -3.5802   34.4594 C   0  0  0  0  0  0  0  0  0  0  0  0
   -0.8668   -4.5203   35.6198 N   0  0  0  0  0  0  0  0  0  0  0  0
   -0.2804   -5.7506   35.1688 N   0  0  0  0  0  0  0  0  0  0  0  0
   -0.2255   -6.8024   36.1809 C   0  0  0  0  0  0  0  0  0  0  0  0
   -1.1018   -7.8483   35.7852 O   0  0  0  0  0  0  0  0  0  0  0  0
    1.2289   -7.2283   36.1435 C   0  0  0  0  0  0  0  0  0  0  0  0
    1.7446   -6.7643   34.7797 C   0  0  0  0  0  0  0  0  0  0  0  0
    3.2507   -6.5509   34.8273 C   0  0  0  0  0  0  0  0  0  0  0  0
    1.0133   -5.5347   34.6185 N   0  0  0  0  0  0  0  0  0  0  0  0
    2.6398   -4.7367   31.5742 C   0  0  0  0  0  0  0  0  0  0  0  0
    3.0187   -4.8665   30.2497 C   0  0  0  0  0  0  0  0  0  0  0  0
    5.3944   -8.2314   25.7583 H   0  0  0  0  0  0  0  0  0  0  0  0
    3.8178   -8.5354   24.9767 H   0  0  0  0  0  0  0  0  0  0  0  0
    4.9109   -7.2446   24.3587 H   0  0  0  0  0  0  0  0  0  0  0  0
    4.1896   -5.8359   26.0672 H   0  0  0  0  0  0  0  0  0  0  0  0
    3.6236   -5.0897   27.8369 H   0  0  0  0  0  0  0  0  0  0  0  0
    1.9350   -5.1062   27.3703 H   0  0  0  0  0  0  0  0  0  0  0  0
    0.7527   -7.2422   29.3766 H   0  0  0  0  0  0  0  0  0  0  0  0
   -0.0196   -6.8715   31.6424 H   0  0  0  0  0  0  0  0  0  0  0  0
    1.4782   -3.9153   33.5342 H   0  0  0  0  0  0  0  0  0  0  0  0
   -1.2503   -5.2019   33.0407 H   0  0  0  0  0  0  0  0  0  0  0  0
   -0.4975   -4.0889   31.1006 H   0  0  0  0  0  0  0  0  0  0  0  0
    0.6802    0.1069   30.6608 H   0  0  0  0  0  0  0  0  0  0  0  0
   -0.9870    0.6081   30.9134 H   0  0  0  0  0  0  0  0  0  0  0  0
   -0.0945    1.5401   28.7718 H   0  0  0  0  0  0  0  0  0  0  0  0
   -1.3353    0.3467   28.3674 H   0  0  0  0  0  0  0  0  0  0  0  0
    1.0369   -2.1974   27.6016 H   0  0  0  0  0  0  0  0  0  0  0  0
    1.6214   -1.6536   29.1582 H   0  0  0  0  0  0  0  0  0  0  0  0
   -1.3571   -2.0674   28.4770 H   0  0  0  0  0  0  0  0  0  0  0  0
   -0.3637   -3.2403   29.3205 H   0  0  0  0  0  0  0  0  0  0  0  0
   -0.0797   -2.8422   34.6674 H   0  0  0  0  0  0  0  0  0  0  0  0
   -1.7882   -2.9937   34.4371 H   0  0  0  0  0  0  0  0  0  0  0  0
   -1.8633   -4.7029   35.7877 H   0  0  0  0  0  0  0  0  0  0  0  0
   -0.5128   -6.4753   37.1869 H   0  0  0  0  0  0  0  0  0  0  0  0
   -0.8506   -8.6847   36.2269 H   0  0  0  0  0  0  0  0  0  0  0  0
    1.3752   -8.2978   36.2754 H   0  0  0  0  0  0  0  0  0  0  0  0
    1.7725   -6.7112   36.9464 H   0  0  0  0  0  0  0  0  0  0  0  0
    1.4672   -7.5001   34.0192 H   0  0  0  0  0  0  0  0  0  0  0  0
    3.6402   -6.2006   33.8692 H   0  0  0  0  0  0  0  0  0  0  0  0
    3.5301   -5.8081   35.5837 H   0  0  0  0  0  0  0  0  0  0  0  0
    3.7606   -7.4859   35.0820 H   0  0  0  0  0  0  0  0  0  0  0  0
    3.1721   -4.0114   32.1914 H   0  0  0  0  0  0  0  0  0  0  0  0
    3.8509   -4.2628   29.8917 H   0  0  0  0  0  0  0  0  0  0  0  0
  1  2  1  0
  2  3  1  0
  3  4  2  0
  3  5  1  0
  5  6  1  0
  6  7  2  0
  7  8  1  0
  8  9  2  0
  9 10  1  0
 10 11  1  0
 11 12  1  0
 12 13  1  0
 13 14  2  0
 13 15  2  0
 13 16  1  0
 16 17  1  0
 17 18  1  0
 18 19  1  0
 19 20  1  0
 20 21  1  0
 11 22  1  0
 22 23  1  0
 23 24  1  0
 24 25  1  0
 25 26  1  0
 25 27  1  0
 27 28  1  0
 28 29  1  0
 28 30  1  0
  9 31  1  0
 31 32  2  0
 32  6  1  0
 30 10  1  0
 21 16  1  0
 30 24  1  0
  1 33  1  0
  1 34  1  0
  1 35  1  0
  2 36  1  0
  5 37  1  0
  5 38  1  0
  7 39  1  0
  8 40  1  0
 10 41  1  0
 11 42  1  0
 12 43  1  0
 17 44  1  0
 17 45  1  0
 18 46  1  0
 18 47  1  0
 20 48  1  0
 20 49  1  0
 21 50  1  0
 21 51  1  0
 22 52  1  0
 22 53  1  0
 23 54  1  0
 25 55  1  0
 26 56  1  0
 27 57  1  0
 27 58  1  0
 28 59  1  0
 29 60  1  0
 29 61  1  0
 29 62  1  0
 31 63  1  0
 32 64  1  0
M  END
>  <Energy>  (274) 
-11.272726675875928

>  <compound_id>  (274) 
318

>  <target_id>  (274) 
1

>  <reference_id>  (274) 
201

>  <inspiration_ids>  (274) 
[201, 202]

>  <energy_score>  (274) 
-47.712090094602814

>  <distance_score>  (274) 
1.9646100855795574

>  <path>  (274) 
/opt/xchem-fragalysis-2/maxwin/BulkDock/SCRATCH/505737/C318-P201/C318-P201.minimised.mol

>  <scratch_subdir>  (274) 
/opt/xchem-fragalysis-2/maxwin/BulkDock/SCRATCH/505737/C318-P201

>  <fragmenstein_runtime>  (274) 
13.739012479782104

>  <fragmenstein_outcome>  (274) 
too moved

>  <fragmenstein_mode>  (274) 
expansion

>  <fragmenstein_error>  (274) 


$$$$
C318-P202
     RDKit          3D

 64 67  0  0  0  0  0  0  0  0999 V2000
    6.4728   -7.0366   25.3185 C   0  0  0  0  0  0  0  0  0  0  0  0
    5.6610   -6.1234   26.0728 N   0  0  0  0  0  0  0  0  0  0  0  0
    4.3498   -6.3616   26.8683 C   0  0  0  0  0  0  0  0  0  0  0  0
    3.7710   -7.3518   27.0956 O   0  0  0  0  0  0  0  0  0  0  0  0
    3.8658   -4.9800   27.3675 C   0  0  0  0  0  0  0  0  0  0  0  0
    3.1607   -5.0103   28.7123 C   0  0  0  0  0  0  0  0  0  0  0  0
    2.1697   -5.9484   28.9852 C   0  0  0  0  0  0  0  0  0  0  0  0
    1.5401   -6.0099   30.2116 C   0  0  0  0  0  0  0  0  0  0  0  0
    1.9555   -5.1694   31.2472 C   0  0  0  0  0  0  0  0  0  0  0  0
    1.2755   -5.3990   32.5696 C   0  0  0  0  0  0  0  0  0  0  0  0
   -0.1295   -4.7848   32.4264 C   0  0  0  0  0  0  0  0  0  0  0  0
   -0.0382   -3.3024   32.1493 N   0  0  0  0  0  0  0  0  0  0  0  0
   -1.4935   -2.4983   32.0720 S   0  0  0  0  0  0  0  0  0  0  0  0
   -1.5834   -1.7179   33.2797 O   0  0  0  0  0  0  0  0  0  0  0  0
   -2.5042   -3.4559   31.6894 O   0  0  0  0  0  0  0  0  0  0  0  0
   -1.2222   -1.4723   30.7955 N   0  0  0  0  0  0  0  0  0  0  0  0
   -0.3950   -0.2633   31.0436 C   0  0  0  0  0  0  0  0  0  0  0  0
   -0.1650    0.4856   29.7272 C   0  0  0  0  0  0  0  0  0  0  0  0
    0.5705   -0.2879   28.7703 O   0  0  0  0  0  0  0  0  0  0  0  0
    0.3702   -1.7014   28.9176 C   0  0  0  0  0  0  0  0  0  0  0  0
   -1.0179   -2.0686   29.4422 C   0  0  0  0  0  0  0  0  0  0  0  0
   -0.8950   -5.0820   33.7133 C   0  0  0  0  0  0  0  0  0  0  0  0
   -0.2221   -5.9913   34.6448 N   0  0  0  0  0  0  0  0  0  0  0  0
    1.0800   -5.4697   34.9820 N   0  0  0  0  0  0  0  0  0  0  0  0
    1.8886   -6.5841   35.5161 C   0  0  0  0  0  0  0  0  0  0  0  0
    1.7288   -7.7659   34.7304 O   0  0  0  0  0  0  0  0  0  0  0  0
    3.2844   -6.0791   35.3712 C   0  0  0  0  0  0  0  0  0  0  0  0
    3.2471   -5.1884   34.1274 C   0  0  0  0  0  0  0  0  0  0  0  0
    4.0279   -3.9029   34.4202 C   0  0  0  0  0  0  0  0  0  0  0  0
    1.8334   -4.8830   33.8444 N   0  0  0  0  0  0  0  0  0  0  0  0
    2.8802   -4.1620   30.9646 C   0  0  0  0  0  0  0  0  0  0  0  0
    3.4811   -4.0819   29.7059 C   0  0  0  0  0  0  0  0  0  0  0  0
    6.0570   -8.0421   25.4030 H   0  0  0  0  0  0  0  0  0  0  0  0
    6.4872   -6.7137   24.2765 H   0  0  0  0  0  0  0  0  0  0  0  0
    7.4866   -7.0142   25.7238 H   0  0  0  0  0  0  0  0  0  0  0  0
    5.9258   -5.1489   26.1411 H   0  0  0  0  0  0  0  0  0  0  0  0
    4.7141   -4.2906   27.4377 H   0  0  0  0  0  0  0  0  0  0  0  0
    3.1774   -4.5791   26.6149 H   0  0  0  0  0  0  0  0  0  0  0  0
    1.9372   -6.7016   28.2510 H   0  0  0  0  0  0  0  0  0  0  0  0
    0.7841   -6.7761   30.3735 H   0  0  0  0  0  0  0  0  0  0  0  0
    1.1995   -6.4930   32.6456 H   0  0  0  0  0  0  0  0  0  0  0  0
   -0.6546   -5.2480   31.5802 H   0  0  0  0  0  0  0  0  0  0  0  0
    0.5528   -2.8604   32.8601 H   0  0  0  0  0  0  0  0  0  0  0  0
    0.5677   -0.5566   31.4773 H   0  0  0  0  0  0  0  0  0  0  0  0
   -0.9191    0.3960   31.7431 H   0  0  0  0  0  0  0  0  0  0  0  0
    0.3979    1.4067   29.9079 H   0  0  0  0  0  0  0  0  0  0  0  0
   -1.1203    0.7682   29.2692 H   0  0  0  0  0  0  0  0  0  0  0  0
    0.5459   -2.1641   27.9489 H   0  0  0  0  0  0  0  0  0  0  0  0
    1.1466   -2.0737   29.5935 H   0  0  0  0  0  0  0  0  0  0  0  0
   -1.7903   -1.6651   28.7787 H   0  0  0  0  0  0  0  0  0  0  0  0
   -1.1290   -3.1571   29.4613 H   0  0  0  0  0  0  0  0  0  0  0  0
   -1.1786   -4.1752   34.2544 H   0  0  0  0  0  0  0  0  0  0  0  0
   -1.7801   -5.6294   33.4030 H   0  0  0  0  0  0  0  0  0  0  0  0
   -0.7977   -6.0189   35.4954 H   0  0  0  0  0  0  0  0  0  0  0  0
    1.6322   -6.8202   36.5542 H   0  0  0  0  0  0  0  0  0  0  0  0
    0.7790   -7.6714   34.5062 H   0  0  0  0  0  0  0  0  0  0  0  0
    4.0119   -6.8884   35.2441 H   0  0  0  0  0  0  0  0  0  0  0  0
    3.5618   -5.5027   36.2628 H   0  0  0  0  0  0  0  0  0  0  0  0
    3.7260   -5.7093   33.2959 H   0  0  0  0  0  0  0  0  0  0  0  0
    4.0549   -3.2267   33.5643 H   0  0  0  0  0  0  0  0  0  0  0  0
    3.5902   -3.3488   35.2590 H   0  0  0  0  0  0  0  0  0  0  0  0
    5.0653   -4.1393   34.6822 H   0  0  0  0  0  0  0  0  0  0  0  0
    3.1326   -3.4172   31.7094 H   0  0  0  0  0  0  0  0  0  0  0  0
    4.2111   -3.2963   29.5205 H   0  0  0  0  0  0  0  0  0  0  0  0
  1  2  1  0
  2  3  1  0
  3  4  2  0
  3  5  1  0
  5  6  1  0
  6  7  2  0
  7  8  1  0
  8  9  2  0
  9 10  1  0
 10 11  1  0
 11 12  1  0
 12 13  1  0
 13 14  2  0
 13 15  2  0
 13 16  1  0
 16 17  1  0
 17 18  1  0
 18 19  1  0
 19 20  1  0
 20 21  1  0
 11 22  1  0
 22 23  1  0
 23 24  1  0
 24 25  1  0
 25 26  1  0
 25 27  1  0
 27 28  1  0
 28 29  1  0
 28 30  1  0
  9 31  1  0
 31 32  2  0
 32  6  1  0
 30 10  1  0
 21 16  1  0
 30 24  1  0
  1 33  1  0
  1 34  1  0
  1 35  1  0
  2 36  1  0
  5 37  1  0
  5 38  1  0
  7 39  1  0
  8 40  1  0
 10 41  1  0
 11 42  1  0
 12 43  1  0
 17 44  1  0
 17 45  1  0
 18 46  1  0
 18 47  1  0
 20 48  1  0
 20 49  1  0
 21 50  1  0
 21 51  1  0
 22 52  1  0
 22 53  1  0
 23 54  1  0
 25 55  1  0
 26 56  1  0
 27 57  1  0
 27 58  1  0
 28 59  1  0
 29 60  1  0
 29 61  1  0
 29 62  1  0
 31 63  1  0
 32 64  1  0
M  END
>  <Energy>  (275) 
-37.627076105931835

>  <compound_id>  (275) 
318

>  <target_id>  (275) 
1

>  <reference_id>  (275) 
202

>  <inspiration_ids>  (275) 
[201, 202]

>  <energy_score>  (275) 
-74.06643952466047

>  <distance_score>  (275) 
2.167511997491103

>  <path>  (275) 
/opt/xchem-fragalysis-2/maxwin/BulkDock/SCRATCH/505737/C318-P202/C318-P202.minimised.mol

>  <scratch_subdir>  (275) 
/opt/xchem-fragalysis-2/maxwin/BulkDock/SCRATCH/505737/C318-P202

>  <fragmenstein_runtime>  (275) 
19.713958501815796

>  <fragmenstein_outcome>  (275) 
too moved

>  <fragmenstein_mode>  (275) 
expansion

>  <fragmenstein_error>  (275) 


$$$$
C322-P202
     RDKit          3D

 68 71  0  0  0  0  0  0  0  0999 V2000
    4.2318   -0.9346   34.8004 C   0  0  0  0  0  0  0  0  0  0  0  0
    4.9356   -1.7835   33.8881 O   0  0  0  0  0  0  0  0  0  0  0  0
    4.1328   -2.8281   33.5215 C   0  0  0  0  0  0  0  0  0  0  0  0
    3.1991   -2.6111   32.5080 C   0  0  0  0  0  0  0  0  0  0  0  0
    2.2870   -3.6040   32.0616 C   0  0  0  0  0  0  0  0  0  0  0  0
    1.5775   -3.2044   30.7795 C   0  0  0  0  0  0  0  0  0  0  0  0
    0.1594   -2.9301   30.7834 N   0  0  0  0  0  0  0  0  0  0  0  0
   -0.5735   -1.7421   31.6701 S   0  0  0  0  0  0  0  0  0  0  0  0
    0.1611   -1.4679   32.8771 O   0  0  0  0  0  0  0  0  0  0  0  0
   -1.9792   -2.0910   31.6849 O   0  0  0  0  0  0  0  0  0  0  0  0
   -0.4133   -0.4404   30.6537 N   0  0  0  0  0  0  0  0  0  0  0  0
    0.8111    0.3881   30.7079 C   0  0  0  0  0  0  0  0  0  0  0  0
    0.8063    1.4238   29.5807 C   0  0  0  0  0  0  0  0  0  0  0  0
    0.7630    0.8102   28.2881 O   0  0  0  0  0  0  0  0  0  0  0  0
   -0.1504   -0.2913   28.2007 C   0  0  0  0  0  0  0  0  0  0  0  0
   -1.1351   -0.4071   29.3640 C   0  0  0  0  0  0  0  0  0  0  0  0
    2.2565   -4.8406   32.7585 C   0  0  0  0  0  0  0  0  0  0  0  0
    1.2706   -6.0330   32.6518 C   0  0  0  0  0  0  0  0  0  0  0  0
    0.2983   -6.0851   31.4424 C   0  0  0  0  0  0  0  0  0  0  0  0
   -0.0399   -7.5000   30.9446 C   0  0  0  0  0  0  0  0  0  0  0  0
   -1.0330   -5.4499   31.8395 C   0  0  0  0  0  0  0  0  0  0  0  0
   -0.9281   -4.5802   32.9883 N   0  0  0  0  0  0  0  0  0  0  0  0
   -0.5648   -5.3569   34.0929 N   0  0  0  0  0  0  0  0  0  0  0  0
   -0.1385   -4.5225   35.2194 C   0  0  0  0  0  0  0  0  0  0  0  0
   -1.2585   -4.2866   36.0538 O   0  0  0  0  0  0  0  0  0  0  0  0
    0.9084   -5.3463   35.9478 C   0  0  0  0  0  0  0  0  0  0  0  0
    0.9629   -6.6506   35.1596 C   0  0  0  0  0  0  0  0  0  0  0  0
    0.0243   -7.6542   35.8426 C   0  0  0  0  0  0  0  0  0  0  0  0
    0.4231   -6.3452   33.8399 N   0  0  0  0  0  0  0  0  0  0  0  0
    3.3204   -5.0579   33.6825 C   0  0  0  0  0  0  0  0  0  0  0  0
    4.2583   -4.0919   34.0617 C   0  0  0  0  0  0  0  0  0  0  0  0
    5.1660   -4.5339   34.9821 O   0  0  0  0  0  0  0  0  0  0  0  0
    6.3954   -3.8229   35.0671 C   0  0  0  0  0  0  0  0  0  0  0  0
    3.4092   -0.4131   34.2992 H   0  0  0  0  0  0  0  0  0  0  0  0
    4.9367   -0.1818   35.1657 H   0  0  0  0  0  0  0  0  0  0  0  0
    3.8589   -1.4974   35.6639 H   0  0  0  0  0  0  0  0  0  0  0  0
    3.2004   -1.6274   32.0395 H   0  0  0  0  0  0  0  0  0  0  0  0
    2.0780   -2.3474   30.3136 H   0  0  0  0  0  0  0  0  0  0  0  0
    1.7804   -3.9893   30.0417 H   0  0  0  0  0  0  0  0  0  0  0  0
   -0.3518   -3.1521   29.9360 H   0  0  0  0  0  0  0  0  0  0  0  0
    0.8597    0.9027   31.6727 H   0  0  0  0  0  0  0  0  0  0  0  0
    1.6929   -0.2458   30.5966 H   0  0  0  0  0  0  0  0  0  0  0  0
    1.7154    2.0317   29.6261 H   0  0  0  0  0  0  0  0  0  0  0  0
   -0.0462    2.1060   29.6692 H   0  0  0  0  0  0  0  0  0  0  0  0
    0.4517   -1.2032   28.1275 H   0  0  0  0  0  0  0  0  0  0  0  0
   -0.7081   -0.1788   27.2682 H   0  0  0  0  0  0  0  0  0  0  0  0
   -1.8013    0.4620   29.3836 H   0  0  0  0  0  0  0  0  0  0  0  0
   -1.7562   -1.2956   29.2225 H   0  0  0  0  0  0  0  0  0  0  0  0
    1.9287   -6.8909   32.5189 H   0  0  0  0  0  0  0  0  0  0  0  0
    0.7224   -5.5815   30.5777 H   0  0  0  0  0  0  0  0  0  0  0  0
    0.7943   -7.9360   30.4013 H   0  0  0  0  0  0  0  0  0  0  0  0
   -0.8737   -7.4709   30.2340 H   0  0  0  0  0  0  0  0  0  0  0  0
   -0.3236   -8.1662   31.7650 H   0  0  0  0  0  0  0  0  0  0  0  0
   -1.4025   -4.8608   31.0057 H   0  0  0  0  0  0  0  0  0  0  0  0
   -1.7574   -6.2417   32.0439 H   0  0  0  0  0  0  0  0  0  0  0  0
   -1.8141   -4.0989   33.1775 H   0  0  0  0  0  0  0  0  0  0  0  0
    0.2847   -3.5560   34.9193 H   0  0  0  0  0  0  0  0  0  0  0  0
   -2.0048   -4.3566   35.4240 H   0  0  0  0  0  0  0  0  0  0  0  0
    0.6687   -5.5001   37.0061 H   0  0  0  0  0  0  0  0  0  0  0  0
    1.8740   -4.8353   35.9017 H   0  0  0  0  0  0  0  0  0  0  0  0
    1.9552   -7.1069   35.1331 H   0  0  0  0  0  0  0  0  0  0  0  0
    0.4608   -8.0060   36.7831 H   0  0  0  0  0  0  0  0  0  0  0  0
   -0.1485   -8.5090   35.1940 H   0  0  0  0  0  0  0  0  0  0  0  0
   -0.9572   -7.2267   36.0754 H   0  0  0  0  0  0  0  0  0  0  0  0
    3.4331   -6.0320   34.1519 H   0  0  0  0  0  0  0  0  0  0  0  0
    7.1119   -4.4659   35.5880 H   0  0  0  0  0  0  0  0  0  0  0  0
    6.8130   -3.6027   34.0788 H   0  0  0  0  0  0  0  0  0  0  0  0
    6.2773   -2.9165   35.6674 H   0  0  0  0  0  0  0  0  0  0  0  0
  1  2  1  0
  2  3  1  0
  3  4  2  0
  4  5  1  0
  5  6  1  0
  6  7  1  0
  7  8  1  0
  8  9  2  0
  8 10  2  0
  8 11  1  0
 11 12  1  0
 12 13  1  0
 13 14  1  0
 14 15  1  0
 15 16  1  0
  5 17  2  0
 17 18  1  0
 18 19  1  0
 19 20  1  0
 19 21  1  0
 21 22  1  0
 22 23  1  0
 23 24  1  0
 24 25  1  0
 24 26  1  0
 26 27  1  0
 27 28  1  0
 27 29  1  0
 17 30  1  0
 30 31  2  0
 31 32  1  0
 32 33  1  0
 31  3  1  0
 16 11  1  0
 29 18  1  0
 29 23  1  0
  1 34  1  0
  1 35  1  0
  1 36  1  0
  4 37  1  0
  6 38  1  0
  6 39  1  0
  7 40  1  0
 12 41  1  0
 12 42  1  0
 13 43  1  0
 13 44  1  0
 15 45  1  0
 15 46  1  0
 16 47  1  0
 16 48  1  0
 18 49  1  0
 19 50  1  0
 20 51  1  0
 20 52  1  0
 20 53  1  0
 21 54  1  0
 21 55  1  0
 22 56  1  0
 24 57  1  0
 25 58  1  0
 26 59  1  0
 26 60  1  0
 27 61  1  0
 28 62  1  0
 28 63  1  0
 28 64  1  0
 30 65  1  0
 33 66  1  0
 33 67  1  0
 33 68  1  0
M  END
>  <Energy>  (276) 
-49.101508468857766

>  <compound_id>  (276) 
322

>  <target_id>  (276) 
1

>  <reference_id>  (276) 
202

>  <inspiration_ids>  (276) 
[202, 56]

>  <energy_score>  (276) 
-122.89411432042115

>  <distance_score>  (276) 
2.883837818167829

>  <path>  (276) 
/opt/xchem-fragalysis-2/maxwin/BulkDock/SCRATCH/505737/C322-P202/C322-P202.minimised.mol

>  <scratch_subdir>  (276) 
/opt/xchem-fragalysis-2/maxwin/BulkDock/SCRATCH/505737/C322-P202

>  <fragmenstein_runtime>  (276) 
22.88200330734253

>  <fragmenstein_outcome>  (276) 
too moved

>  <fragmenstein_mode>  (276) 
expansion

>  <fragmenstein_error>  (276) 


$$$$
C322-P56
     RDKit          3D

 68 71  0  0  0  0  0  0  0  0999 V2000
    6.5914   -3.2190   31.0006 C   0  0  0  0  0  0  0  0  0  0  0  0
    5.5844   -3.9173   30.2689 O   0  0  0  0  0  0  0  0  0  0  0  0
    4.4462   -4.1267   31.0043 C   0  0  0  0  0  0  0  0  0  0  0  0
    3.2607   -3.6838   30.4167 C   0  0  0  0  0  0  0  0  0  0  0  0
    1.9837   -3.8693   31.0047 C   0  0  0  0  0  0  0  0  0  0  0  0
    0.8567   -3.4150   30.1058 C   0  0  0  0  0  0  0  0  0  0  0  0
   -0.4742   -3.1695   30.6232 N   0  0  0  0  0  0  0  0  0  0  0  0
   -0.8553   -1.7643   31.4119 S   0  0  0  0  0  0  0  0  0  0  0  0
    0.0940   -1.5241   32.4651 O   0  0  0  0  0  0  0  0  0  0  0  0
   -2.2777   -1.8724   31.6479 O   0  0  0  0  0  0  0  0  0  0  0  0
   -0.6280   -0.6357   30.2345 N   0  0  0  0  0  0  0  0  0  0  0  0
    0.6027    0.1841   30.1818 C   0  0  0  0  0  0  0  0  0  0  0  0
    0.3418    1.4420   29.3453 C   0  0  0  0  0  0  0  0  0  0  0  0
   -0.0780    1.1697   28.0018 O   0  0  0  0  0  0  0  0  0  0  0  0
   -0.7235   -0.0968   27.8433 C   0  0  0  0  0  0  0  0  0  0  0  0
   -1.5188   -0.5384   29.0704 C   0  0  0  0  0  0  0  0  0  0  0  0
    1.9228   -4.5383   32.2445 C   0  0  0  0  0  0  0  0  0  0  0  0
    0.6571   -4.7603   33.0984 C   0  0  0  0  0  0  0  0  0  0  0  0
    0.8227   -3.9867   34.4883 C   0  0  0  0  0  0  0  0  0  0  0  0
   -0.4839   -3.3290   34.9743 C   0  0  0  0  0  0  0  0  0  0  0  0
    1.3236   -4.9230   35.6294 C   0  0  0  0  0  0  0  0  0  0  0  0
    0.8303   -6.3271   35.5519 N   0  0  0  0  0  0  0  0  0  0  0  0
   -0.2211   -6.3282   34.5935 N   0  0  0  0  0  0  0  0  0  0  0  0
   -1.0520   -7.5164   34.6064 C   0  0  0  0  0  0  0  0  0  0  0  0
   -2.2479   -7.2003   35.2883 O   0  0  0  0  0  0  0  0  0  0  0  0
   -1.3413   -7.7815   33.1457 C   0  0  0  0  0  0  0  0  0  0  0  0
   -0.2262   -7.0739   32.3851 C   0  0  0  0  0  0  0  0  0  0  0  0
   -0.7167   -6.4895   31.0797 C   0  0  0  0  0  0  0  0  0  0  0  0
    0.4049   -6.1907   33.3491 N   0  0  0  0  0  0  0  0  0  0  0  0
    3.1491   -5.0113   32.7956 C   0  0  0  0  0  0  0  0  0  0  0  0
    4.4014   -4.8130   32.2087 C   0  0  0  0  0  0  0  0  0  0  0  0
    5.5803   -5.2957   32.7103 O   0  0  0  0  0  0  0  0  0  0  0  0
    5.5539   -5.8166   34.0365 C   0  0  0  0  0  0  0  0  0  0  0  0
    7.1677   -2.6243   30.2850 H   0  0  0  0  0  0  0  0  0  0  0  0
    7.2791   -3.9288   31.4694 H   0  0  0  0  0  0  0  0  0  0  0  0
    6.1757   -2.5321   31.7471 H   0  0  0  0  0  0  0  0  0  0  0  0
    3.3446   -3.1735   29.4561 H   0  0  0  0  0  0  0  0  0  0  0  0
    1.1682   -2.5417   29.5250 H   0  0  0  0  0  0  0  0  0  0  0  0
    0.7427   -4.2049   29.3494 H   0  0  0  0  0  0  0  0  0  0  0  0
   -1.2117   -3.4058   29.9674 H   0  0  0  0  0  0  0  0  0  0  0  0
    0.9054    0.4930   31.1867 H   0  0  0  0  0  0  0  0  0  0  0  0
    1.4123   -0.3957   29.7303 H   0  0  0  0  0  0  0  0  0  0  0  0
    1.2469    2.0551   29.2904 H   0  0  0  0  0  0  0  0  0  0  0  0
   -0.4370    2.0525   29.8151 H   0  0  0  0  0  0  0  0  0  0  0  0
    0.0476   -0.8364   27.6013 H   0  0  0  0  0  0  0  0  0  0  0  0
   -1.3936   -0.0095   26.9842 H   0  0  0  0  0  0  0  0  0  0  0  0
   -2.2919    0.2015   29.3014 H   0  0  0  0  0  0  0  0  0  0  0  0
   -1.9995   -1.4979   28.8589 H   0  0  0  0  0  0  0  0  0  0  0  0
   -0.2157   -4.3346   32.6138 H   0  0  0  0  0  0  0  0  0  0  0  0
    1.5486   -3.1716   34.3654 H   0  0  0  0  0  0  0  0  0  0  0  0
   -1.1283   -4.0279   35.5136 H   0  0  0  0  0  0  0  0  0  0  0  0
   -1.0654   -2.8970   34.1605 H   0  0  0  0  0  0  0  0  0  0  0  0
   -0.2490   -2.5208   35.6766 H   0  0  0  0  0  0  0  0  0  0  0  0
    2.4187   -4.9410   35.6408 H   0  0  0  0  0  0  0  0  0  0  0  0
    1.0367   -4.5154   36.6070 H   0  0  0  0  0  0  0  0  0  0  0  0
    1.5890   -6.8587   35.1052 H   0  0  0  0  0  0  0  0  0  0  0  0
   -0.5971   -8.3793   35.0932 H   0  0  0  0  0  0  0  0  0  0  0  0
   -2.0531   -6.2726   35.5378 H   0  0  0  0  0  0  0  0  0  0  0  0
   -2.3181   -7.3943   32.8557 H   0  0  0  0  0  0  0  0  0  0  0  0
   -1.3428   -8.8570   32.9371 H   0  0  0  0  0  0  0  0  0  0  0  0
    0.5084   -7.8289   32.1118 H   0  0  0  0  0  0  0  0  0  0  0  0
   -1.2584   -7.2390   30.4963 H   0  0  0  0  0  0  0  0  0  0  0  0
    0.1166   -6.1486   30.4628 H   0  0  0  0  0  0  0  0  0  0  0  0
   -1.3895   -5.6547   31.2701 H   0  0  0  0  0  0  0  0  0  0  0  0
    3.0915   -5.5956   33.7061 H   0  0  0  0  0  0  0  0  0  0  0  0
    6.5868   -6.0280   34.3296 H   0  0  0  0  0  0  0  0  0  0  0  0
    5.1510   -5.0863   34.7463 H   0  0  0  0  0  0  0  0  0  0  0  0
    5.0004   -6.7598   34.0760 H   0  0  0  0  0  0  0  0  0  0  0  0
  1  2  1  0
  2  3  1  0
  3  4  2  0
  4  5  1  0
  5  6  1  0
  6  7  1  0
  7  8  1  0
  8  9  2  0
  8 10  2  0
  8 11  1  0
 11 12  1  0
 12 13  1  0
 13 14  1  0
 14 15  1  0
 15 16  1  0
  5 17  2  0
 17 18  1  0
 18 19  1  0
 19 20  1  0
 19 21  1  0
 21 22  1  0
 22 23  1  0
 23 24  1  0
 24 25  1  0
 24 26  1  0
 26 27  1  0
 27 28  1  0
 27 29  1  0
 17 30  1  0
 30 31  2  0
 31 32  1  0
 32 33  1  0
 31  3  1  0
 16 11  1  0
 29 18  1  0
 29 23  1  0
  1 34  1  0
  1 35  1  0
  1 36  1  0
  4 37  1  0
  6 38  1  0
  6 39  1  0
  7 40  1  0
 12 41  1  0
 12 42  1  0
 13 43  1  0
 13 44  1  0
 15 45  1  0
 15 46  1  0
 16 47  1  0
 16 48  1  0
 18 49  1  0
 19 50  1  0
 20 51  1  0
 20 52  1  0
 20 53  1  0
 21 54  1  0
 21 55  1  0
 22 56  1  0
 24 57  1  0
 25 58  1  0
 26 59  1  0
 26 60  1  0
 27 61  1  0
 28 62  1  0
 28 63  1  0
 28 64  1  0
 30 65  1  0
 33 66  1  0
 33 67  1  0
 33 68  1  0
M  END
>  <Energy>  (277) 
-59.318248180029308

>  <compound_id>  (277) 
322

>  <target_id>  (277) 
1

>  <reference_id>  (277) 
56

>  <inspiration_ids>  (277) 
[202, 56]

>  <energy_score>  (277) 
-133.11085403159456

>  <distance_score>  (277) 
2.738834876387522

>  <path>  (277) 
/opt/xchem-fragalysis-2/maxwin/BulkDock/SCRATCH/505737/C322-P56/C322-P56.minimised.mol

>  <scratch_subdir>  (277) 
/opt/xchem-fragalysis-2/maxwin/BulkDock/SCRATCH/505737/C322-P56

>  <fragmenstein_runtime>  (277) 
25.793100595474243

>  <fragmenstein_outcome>  (277) 
too moved

>  <fragmenstein_mode>  (277) 
expansion

>  <fragmenstein_error>  (277) 


$$$$
C326-P202
     RDKit          3D

 64 66  0  0  0  0  0  0  0  0999 V2000
   -0.1689   -7.3514   35.6387 C   0  0  0  0  0  0  0  0  0  0  0  0
   -0.2545   -6.6922   34.2719 C   0  0  0  0  0  0  0  0  0  0  0  0
   -1.4246   -7.2818   33.4702 C   0  0  0  0  0  0  0  0  0  0  0  0
   -0.9860   -7.9256   32.1652 C   0  0  0  0  0  0  0  0  0  0  0  0
   -2.0824   -8.3366   31.3702 O   0  0  0  0  0  0  0  0  0  0  0  0
   -0.1344   -7.0694   31.3643 N   0  0  0  0  0  0  0  0  0  0  0  0
    0.5335   -6.0418   32.1610 C   0  0  0  0  0  0  0  0  0  0  0  0
    1.5284   -5.3052   31.2455 C   0  0  0  0  0  0  0  0  0  0  0  0
    0.7925   -4.1960   30.4845 C   0  0  0  0  0  0  0  0  0  0  0  0
    0.5227   -3.1072   31.4279 N   0  0  0  0  0  0  0  0  0  0  0  0
   -1.0045   -2.5869   31.8131 S   0  0  0  0  0  0  0  0  0  0  0  0
   -0.8958   -1.9961   33.1257 O   0  0  0  0  0  0  0  0  0  0  0  0
   -1.9602   -3.6272   31.5224 O   0  0  0  0  0  0  0  0  0  0  0  0
   -1.1745   -1.3429   30.7160 N   0  0  0  0  0  0  0  0  0  0  0  0
   -0.4467   -0.0799   31.0192 C   0  0  0  0  0  0  0  0  0  0  0  0
   -0.4059    0.8263   29.7895 C   0  0  0  0  0  0  0  0  0  0  0  0
    0.3150    0.2251   28.7134 O   0  0  0  0  0  0  0  0  0  0  0  0
    0.0484   -1.1758   28.5688 C   0  0  0  0  0  0  0  0  0  0  0  0
   -1.2216   -1.6674   29.2642 C   0  0  0  0  0  0  0  0  0  0  0  0
    0.9671   -6.6838   33.4094 N   0  0  0  0  0  0  0  0  0  0  0  0
    2.1103   -6.0522   34.0929 C   0  0  0  0  0  0  0  0  0  0  0  0
    2.7773   -7.0680   35.0630 C   0  0  0  0  0  0  0  0  0  0  0  0
    2.9882   -8.1779   34.7579 O   0  0  0  0  0  0  0  0  0  0  0  0
    3.0270   -6.3291   36.4049 N   0  0  0  0  0  0  0  0  0  0  0  0
    3.6707   -6.7747   37.6094 C   0  0  0  0  0  0  0  0  0  0  0  0
    2.6932   -6.7570   38.7510 C   0  0  0  0  0  0  0  0  0  0  0  0
    1.8904   -7.8775   39.0062 C   0  0  0  0  0  0  0  0  0  0  0  0
    0.9530   -7.8633   40.0390 C   0  0  0  0  0  0  0  0  0  0  0  0
    0.7997   -6.7226   40.8227 C   0  0  0  0  0  0  0  0  0  0  0  0
    1.5844   -5.5971   40.5739 C   0  0  0  0  0  0  0  0  0  0  0  0
    2.5256   -5.6118   39.5417 C   0  0  0  0  0  0  0  0  0  0  0  0
    0.2438   -8.3525   35.5648 H   0  0  0  0  0  0  0  0  0  0  0  0
    0.4330   -6.7649   36.3349 H   0  0  0  0  0  0  0  0  0  0  0  0
   -1.1609   -7.4335   36.0908 H   0  0  0  0  0  0  0  0  0  0  0  0
   -0.5211   -5.6474   34.5001 H   0  0  0  0  0  0  0  0  0  0  0  0
   -2.0636   -6.4434   33.2143 H   0  0  0  0  0  0  0  0  0  0  0  0
   -2.0331   -7.9773   34.0563 H   0  0  0  0  0  0  0  0  0  0  0  0
   -0.4400   -8.8278   32.4049 H   0  0  0  0  0  0  0  0  0  0  0  0
   -2.6885   -8.8426   31.9470 H   0  0  0  0  0  0  0  0  0  0  0  0
    0.5604   -7.6777   30.9407 H   0  0  0  0  0  0  0  0  0  0  0  0
   -0.2104   -5.2851   32.4231 H   0  0  0  0  0  0  0  0  0  0  0  0
    2.0007   -5.9857   30.5312 H   0  0  0  0  0  0  0  0  0  0  0  0
    2.3380   -4.8266   31.8021 H   0  0  0  0  0  0  0  0  0  0  0  0
    1.4467   -3.8107   29.6962 H   0  0  0  0  0  0  0  0  0  0  0  0
   -0.1142   -4.5703   30.0019 H   0  0  0  0  0  0  0  0  0  0  0  0
    1.2865   -2.5394   31.7831 H   0  0  0  0  0  0  0  0  0  0  0  0
    0.5799   -0.3078   31.3267 H   0  0  0  0  0  0  0  0  0  0  0  0
   -0.9598    0.4380   31.8360 H   0  0  0  0  0  0  0  0  0  0  0  0
   -1.4154    1.0674   29.4375 H   0  0  0  0  0  0  0  0  0  0  0  0
    0.0931    1.7696   30.0324 H   0  0  0  0  0  0  0  0  0  0  0  0
   -0.0319   -1.3669   27.5062 H   0  0  0  0  0  0  0  0  0  0  0  0
    0.9310   -1.7069   28.9340 H   0  0  0  0  0  0  0  0  0  0  0  0
   -2.0842   -1.1514   28.8338 H   0  0  0  0  0  0  0  0  0  0  0  0
   -1.3675   -2.7364   29.0896 H   0  0  0  0  0  0  0  0  0  0  0  0
    2.9253   -5.8286   33.3995 H   0  0  0  0  0  0  0  0  0  0  0  0
    1.8188   -5.1163   34.5788 H   0  0  0  0  0  0  0  0  0  0  0  0
    2.8029   -5.3486   36.2976 H   0  0  0  0  0  0  0  0  0  0  0  0
    4.5183   -6.1107   37.8081 H   0  0  0  0  0  0  0  0  0  0  0  0
    4.0661   -7.7832   37.4483 H   0  0  0  0  0  0  0  0  0  0  0  0
    1.9861   -8.7742   38.3981 H   0  0  0  0  0  0  0  0  0  0  0  0
    0.3481   -8.7488   40.2265 H   0  0  0  0  0  0  0  0  0  0  0  0
    0.0696   -6.7123   41.6275 H   0  0  0  0  0  0  0  0  0  0  0  0
    1.4615   -4.7072   41.1857 H   0  0  0  0  0  0  0  0  0  0  0  0
    3.1255   -4.7236   39.3605 H   0  0  0  0  0  0  0  0  0  0  0  0
  1  2  1  0
  2  3  1  0
  3  4  1  0
  4  5  1  0
  4  6  1  0
  6  7  1  0
  7  8  1  0
  8  9  1  0
  9 10  1  0
 10 11  1  0
 11 12  2  0
 11 13  2  0
 11 14  1  0
 14 15  1  0
 15 16  1  0
 16 17  1  0
 17 18  1  0
 18 19  1  0
  7 20  1  0
 20 21  1  0
 21 22  1  0
 22 23  2  0
 22 24  1  0
 24 25  1  0
 25 26  1  0
 26 27  2  0
 27 28  1  0
 28 29  2  0
 29 30  1  0
 30 31  2  0
 20  2  1  0
 31 26  1  0
 19 14  1  0
  1 32  1  0
  1 33  1  0
  1 34  1  0
  2 35  1  0
  3 36  1  0
  3 37  1  0
  4 38  1  0
  5 39  1  0
  6 40  1  0
  7 41  1  0
  8 42  1  0
  8 43  1  0
  9 44  1  0
  9 45  1  0
 10 46  1  0
 15 47  1  0
 15 48  1  0
 16 49  1  0
 16 50  1  0
 18 51  1  0
 18 52  1  0
 19 53  1  0
 19 54  1  0
 21 55  1  0
 21 56  1  0
 24 57  1  0
 25 58  1  0
 25 59  1  0
 27 60  1  0
 28 61  1  0
 29 62  1  0
 30 63  1  0
 31 64  1  0
M  END
>  <Energy>  (278) 
-151.119718581466

>  <compound_id>  (278) 
326

>  <target_id>  (278) 
1

>  <reference_id>  (278) 
202

>  <inspiration_ids>  (278) 
[202, 78]

>  <energy_score>  (278) 
-25.747885055754367

>  <distance_score>  (278) 
0.8729382489118999

>  <path>  (278) 
/opt/xchem-fragalysis-2/maxwin/BulkDock/SCRATCH/505737/C326-P202/C326-P202.minimised.mol

>  <scratch_subdir>  (278) 
/opt/xchem-fragalysis-2/maxwin/BulkDock/SCRATCH/505737/C326-P202

>  <fragmenstein_runtime>  (278) 
6.771853923797607

>  <fragmenstein_outcome>  (278) 
acceptable

>  <fragmenstein_mode>  (278) 
expansion

>  <fragmenstein_error>  (278) 


$$$$
C326-P78
     RDKit          3D

 64 66  0  0  0  0  0  0  0  0999 V2000
   -0.6348   -6.2627   35.2642 C   0  0  0  0  0  0  0  0  0  0  0  0
   -0.6841   -6.3528   33.7339 C   0  0  0  0  0  0  0  0  0  0  0  0
   -0.9744   -7.8041   33.3679 C   0  0  0  0  0  0  0  0  0  0  0  0
   -0.9328   -8.0682   31.8686 C   0  0  0  0  0  0  0  0  0  0  0  0
   -2.1725   -7.8151   31.2458 O   0  0  0  0  0  0  0  0  0  0  0  0
    0.1261   -7.3611   31.1830 N   0  0  0  0  0  0  0  0  0  0  0  0
    0.1696   -5.9506   31.5554 C   0  0  0  0  0  0  0  0  0  0  0  0
    1.1390   -5.2692   30.5608 C   0  0  0  0  0  0  0  0  0  0  0  0
    0.6048   -3.9221   30.0630 C   0  0  0  0  0  0  0  0  0  0  0  0
    0.5492   -2.9452   31.1462 N   0  0  0  0  0  0  0  0  0  0  0  0
   -0.8763   -2.2351   31.6178 S   0  0  0  0  0  0  0  0  0  0  0  0
   -0.6071   -1.6590   32.9155 O   0  0  0  0  0  0  0  0  0  0  0  0
   -1.9573   -3.1705   31.4179 O   0  0  0  0  0  0  0  0  0  0  0  0
   -0.9806   -0.9864   30.5286 N   0  0  0  0  0  0  0  0  0  0  0  0
   -0.0831    0.1819   30.7187 C   0  0  0  0  0  0  0  0  0  0  0  0
    0.1872    0.9084   29.4030 C   0  0  0  0  0  0  0  0  0  0  0  0
    0.7059   -0.0273   28.4601 O   0  0  0  0  0  0  0  0  0  0  0  0
   -0.2641   -1.0279   28.1166 C   0  0  0  0  0  0  0  0  0  0  0  0
   -1.3968   -1.2387   29.1311 C   0  0  0  0  0  0  0  0  0  0  0  0
    0.5353   -5.9729   32.9788 N   0  0  0  0  0  0  0  0  0  0  0  0
    1.1819   -4.7602   33.5055 C   0  0  0  0  0  0  0  0  0  0  0  0
    2.1068   -5.1134   34.7096 C   0  0  0  0  0  0  0  0  0  0  0  0
    2.8263   -6.0715   34.6488 O   0  0  0  0  0  0  0  0  0  0  0  0
    1.9131   -4.1501   35.7593 N   0  0  0  0  0  0  0  0  0  0  0  0
    2.4465   -4.0883   37.0911 C   0  0  0  0  0  0  0  0  0  0  0  0
    1.3981   -4.5272   38.0788 C   0  0  0  0  0  0  0  0  0  0  0  0
    1.3285   -5.8650   38.4935 C   0  0  0  0  0  0  0  0  0  0  0  0
    0.3213   -6.2858   39.3634 C   0  0  0  0  0  0  0  0  0  0  0  0
   -0.6313   -5.3765   39.8189 C   0  0  0  0  0  0  0  0  0  0  0  0
   -0.5784   -4.0466   39.4066 C   0  0  0  0  0  0  0  0  0  0  0  0
    0.4304   -3.6225   38.5404 C   0  0  0  0  0  0  0  0  0  0  0  0
   -0.5910   -5.2246   35.6029 H   0  0  0  0  0  0  0  0  0  0  0  0
   -1.5436   -6.6904   35.6988 H   0  0  0  0  0  0  0  0  0  0  0  0
    0.2112   -6.8196   35.6787 H   0  0  0  0  0  0  0  0  0  0  0  0
   -1.5185   -5.7174   33.4180 H   0  0  0  0  0  0  0  0  0  0  0  0
   -1.9421   -8.1011   33.7848 H   0  0  0  0  0  0  0  0  0  0  0  0
   -0.2040   -8.4083   33.8498 H   0  0  0  0  0  0  0  0  0  0  0  0
   -0.7820   -9.1346   31.7100 H   0  0  0  0  0  0  0  0  0  0  0  0
   -2.8633   -8.1659   31.8366 H   0  0  0  0  0  0  0  0  0  0  0  0
    1.0062   -7.7438   31.5224 H   0  0  0  0  0  0  0  0  0  0  0  0
   -0.8195   -5.5063   31.3981 H   0  0  0  0  0  0  0  0  0  0  0  0
    1.2645   -5.8956   29.6683 H   0  0  0  0  0  0  0  0  0  0  0  0
    2.1529   -5.1754   30.9655 H   0  0  0  0  0  0  0  0  0  0  0  0
    1.2837   -3.5379   29.2944 H   0  0  0  0  0  0  0  0  0  0  0  0
   -0.3695   -4.0621   29.5858 H   0  0  0  0  0  0  0  0  0  0  0  0
    1.3755   -2.3744   31.3058 H   0  0  0  0  0  0  0  0  0  0  0  0
    0.8778   -0.1584   31.1208 H   0  0  0  0  0  0  0  0  0  0  0  0
   -0.5341    0.8676   31.4419 H   0  0  0  0  0  0  0  0  0  0  0  0
   -0.7098    1.3868   28.9940 H   0  0  0  0  0  0  0  0  0  0  0  0
    0.9393    1.6887   29.5557 H   0  0  0  0  0  0  0  0  0  0  0  0
   -0.7028   -0.7438   27.1567 H   0  0  0  0  0  0  0  0  0  0  0  0
    0.2862   -1.9582   27.9604 H   0  0  0  0  0  0  0  0  0  0  0  0
   -2.1984   -0.5230   28.9137 H   0  0  0  0  0  0  0  0  0  0  0  0
   -1.8379   -2.2300   29.0004 H   0  0  0  0  0  0  0  0  0  0  0  0
    1.8872   -4.3109   32.8037 H   0  0  0  0  0  0  0  0  0  0  0  0
    0.4357   -4.0026   33.7564 H   0  0  0  0  0  0  0  0  0  0  0  0
    1.1628   -3.5220   35.4969 H   0  0  0  0  0  0  0  0  0  0  0  0
    2.7563   -3.0569   37.2887 H   0  0  0  0  0  0  0  0  0  0  0  0
    3.3331   -4.7283   37.1524 H   0  0  0  0  0  0  0  0  0  0  0  0
    2.0533   -6.5897   38.1269 H   0  0  0  0  0  0  0  0  0  0  0  0
    0.2777   -7.3246   39.6804 H   0  0  0  0  0  0  0  0  0  0  0  0
   -1.4217   -5.7019   40.4910 H   0  0  0  0  0  0  0  0  0  0  0  0
   -1.3286   -3.3425   39.7579 H   0  0  0  0  0  0  0  0  0  0  0  0
    0.4512   -2.5833   38.2205 H   0  0  0  0  0  0  0  0  0  0  0  0
  1  2  1  0
  2  3  1  0
  3  4  1  0
  4  5  1  0
  4  6  1  0
  6  7  1  0
  7  8  1  0
  8  9  1  0
  9 10  1  0
 10 11  1  0
 11 12  2  0
 11 13  2  0
 11 14  1  0
 14 15  1  0
 15 16  1  0
 16 17  1  0
 17 18  1  0
 18 19  1  0
  7 20  1  0
 20 21  1  0
 21 22  1  0
 22 23  2  0
 22 24  1  0
 24 25  1  0
 25 26  1  0
 26 27  2  0
 27 28  1  0
 28 29  2  0
 29 30  1  0
 30 31  2  0
 20  2  1  0
 31 26  1  0
 19 14  1  0
  1 32  1  0
  1 33  1  0
  1 34  1  0
  2 35  1  0
  3 36  1  0
  3 37  1  0
  4 38  1  0
  5 39  1  0
  6 40  1  0
  7 41  1  0
  8 42  1  0
  8 43  1  0
  9 44  1  0
  9 45  1  0
 10 46  1  0
 15 47  1  0
 15 48  1  0
 16 49  1  0
 16 50  1  0
 18 51  1  0
 18 52  1  0
 19 53  1  0
 19 54  1  0
 21 55  1  0
 21 56  1  0
 24 57  1  0
 25 58  1  0
 25 59  1  0
 27 60  1  0
 28 61  1  0
 29 62  1  0
 30 63  1  0
 31 64  1  0
M  END
>  <Energy>  (279) 
-170.20072419933078

>  <compound_id>  (279) 
326

>  <target_id>  (279) 
1

>  <reference_id>  (279) 
78

>  <inspiration_ids>  (279) 
[202, 78]

>  <energy_score>  (279) 
-61.038902750178785

>  <distance_score>  (279) 
1.249297143462151

>  <path>  (279) 
/opt/xchem-fragalysis-2/maxwin/BulkDock/SCRATCH/505737/C326-P78/C326-P78.minimised.mol

>  <scratch_subdir>  (279) 
/opt/xchem-fragalysis-2/maxwin/BulkDock/SCRATCH/505737/C326-P78

>  <fragmenstein_runtime>  (279) 
9.839224100112915

>  <fragmenstein_outcome>  (279) 
too moved

>  <fragmenstein_mode>  (279) 
expansion

>  <fragmenstein_error>  (279) 


$$$$
C329-P202
     RDKit          3D

 63 67  0  0  0  0  0  0  0  0999 V2000
    2.3250   -4.5811   30.3992 C   0  0  0  0  0  0  0  0  0  0  0  0
    0.8726   -5.0307   30.4780 C   0  0  0  0  0  0  0  0  0  0  0  0
    0.6539   -6.5386   30.6528 C   0  0  0  0  0  0  0  0  0  0  0  0
   -0.6970   -6.9623   31.0981 N   0  0  0  0  0  0  0  0  0  0  0  0
   -1.4086   -6.0049   31.8382 N   0  0  0  0  0  0  0  0  0  0  0  0
   -0.5859   -5.1733   32.5793 N   0  0  0  0  0  0  0  0  0  0  0  0
   -0.0004   -4.3382   31.5183 C   0  0  0  0  0  0  0  0  0  0  0  0
    0.2651   -2.9684   31.8706 N   0  0  0  0  0  0  0  0  0  0  0  0
   -1.1568   -2.0811   32.1431 S   0  0  0  0  0  0  0  0  0  0  0  0
   -0.9597   -1.3923   33.3930 O   0  0  0  0  0  0  0  0  0  0  0  0
   -2.3254   -2.8927   31.8770 O   0  0  0  0  0  0  0  0  0  0  0  0
   -1.0191   -0.9689   30.9089 N   0  0  0  0  0  0  0  0  0  0  0  0
    0.0316    0.0729   31.0476 C   0  0  0  0  0  0  0  0  0  0  0  0
    0.1620    0.8613   29.7427 C   0  0  0  0  0  0  0  0  0  0  0  0
    0.5900    0.0398   28.6508 O   0  0  0  0  0  0  0  0  0  0  0  0
    0.0737   -1.2957   28.7092 C   0  0  0  0  0  0  0  0  0  0  0  0
   -1.2213   -1.4266   29.5055 C   0  0  0  0  0  0  0  0  0  0  0  0
    0.0709   -6.0373   33.6052 C   0  0  0  0  0  0  0  0  0  0  0  0
   -0.3164   -5.5054   35.0508 C   0  0  0  0  0  0  0  0  0  0  0  0
    0.4416   -4.2021   35.3779 C   0  0  0  0  0  0  0  0  0  0  0  0
    1.7333   -4.4219   34.6202 C   0  0  0  0  0  0  0  0  0  0  0  0
    2.6910   -3.3310   34.4093 C   0  0  0  0  0  0  0  0  0  0  0  0
    2.2674   -1.9975   34.4052 C   0  0  0  0  0  0  0  0  0  0  0  0
    3.1364   -0.9865   34.0043 C   0  0  0  0  0  0  0  0  0  0  0  0
    4.4433   -1.3028   33.6571 C   0  0  0  0  0  0  0  0  0  0  0  0
    4.8792   -2.6265   33.7107 C   0  0  0  0  0  0  0  0  0  0  0  0
    4.0035   -3.6455   34.0769 C   0  0  0  0  0  0  0  0  0  0  0  0
    1.8463   -5.9105   33.6782 S   0  0  0  0  0  6  0  0  0  0  0  0
    2.2655   -7.0154   34.8164 O   0  0  0  0  0  0  0  0  0  0  0  0
   -0.4679   -7.5063   33.5283 C   0  0  0  0  0  0  0  0  0  0  0  0
   -0.6049   -8.0335   32.0698 C   0  0  0  0  0  0  0  0  0  0  0  0
   -1.7453   -8.8437   31.9041 O   0  0  0  0  0  0  0  0  0  0  0  0
    2.7956   -4.4607   31.3730 H   0  0  0  0  0  0  0  0  0  0  0  0
    2.9198   -5.2825   29.8056 H   0  0  0  0  0  0  0  0  0  0  0  0
    2.3891   -3.6041   29.9080 H   0  0  0  0  0  0  0  0  0  0  0  0
    0.4592   -4.7921   29.4846 H   0  0  0  0  0  0  0  0  0  0  0  0
    0.8701   -7.0485   29.7095 H   0  0  0  0  0  0  0  0  0  0  0  0
    1.4067   -6.9032   31.3427 H   0  0  0  0  0  0  0  0  0  0  0  0
   -2.0711   -5.4711   31.3030 H   0  0  0  0  0  0  0  0  0  0  0  0
   -0.8266   -4.1435   30.8127 H   0  0  0  0  0  0  0  0  0  0  0  0
    0.8549   -2.8620   32.6850 H   0  0  0  0  0  0  0  0  0  0  0  0
   -0.2445    0.7561   31.8572 H   0  0  0  0  0  0  0  0  0  0  0  0
    0.9925   -0.3970   31.2843 H   0  0  0  0  0  0  0  0  0  0  0  0
   -0.7910    1.3255   29.4648 H   0  0  0  0  0  0  0  0  0  0  0  0
    0.8969    1.6642   29.8576 H   0  0  0  0  0  0  0  0  0  0  0  0
    0.8558   -1.9342   29.1308 H   0  0  0  0  0  0  0  0  0  0  0  0
   -0.0983   -1.6198   27.6871 H   0  0  0  0  0  0  0  0  0  0  0  0
   -1.5876   -2.4550   29.4567 H   0  0  0  0  0  0  0  0  0  0  0  0
   -1.9894   -0.7858   29.0615 H   0  0  0  0  0  0  0  0  0  0  0  0
   -0.0406   -6.2589   35.8027 H   0  0  0  0  0  0  0  0  0  0  0  0
   -1.3911   -5.3596   35.1626 H   0  0  0  0  0  0  0  0  0  0  0  0
    0.6234   -4.0874   36.4485 H   0  0  0  0  0  0  0  0  0  0  0  0
   -0.1150   -3.3496   34.9906 H   0  0  0  0  0  0  0  0  0  0  0  0
    1.2606   -1.7126   34.6984 H   0  0  0  0  0  0  0  0  0  0  0  0
    2.8015    0.0478   33.9904 H   0  0  0  0  0  0  0  0  0  0  0  0
    5.1344   -0.5153   33.3643 H   0  0  0  0  0  0  0  0  0  0  0  0
    5.9115   -2.8625   33.4608 H   0  0  0  0  0  0  0  0  0  0  0  0
    4.3704   -4.6679   34.1115 H   0  0  0  0  0  0  0  0  0  0  0  0
    2.6289   -5.9268   32.5863 H   0  0  0  0  0  0  0  0  0  0  0  0
    0.1619   -8.1534   34.1319 H   0  0  0  0  0  0  0  0  0  0  0  0
   -1.4597   -7.5543   34.0036 H   0  0  0  0  0  0  0  0  0  0  0  0
    0.2209   -8.6493   31.8002 H   0  0  0  0  0  0  0  0  0  0  0  0
   -2.5044   -8.2518   32.0310 H   0  0  0  0  0  0  0  0  0  0  0  0
  1  2  1  0
  2  3  1  0
  3  4  1  0
  4  5  1  0
  5  6  1  0
  6  7  1  0
  7  8  1  0
  8  9  1  0
  9 10  2  0
  9 11  2  0
  9 12  1  0
 12 13  1  0
 13 14  1  0
 14 15  1  0
 15 16  1  0
 16 17  1  0
  6 18  1  0
 18 19  1  0
 19 20  1  0
 20 21  1  0
 21 22  1  0
 22 23  2  0
 23 24  1  0
 24 25  2  0
 25 26  1  0
 26 27  2  0
 21 28  2  0
 28 29  2  0
 18 30  1  0
 30 31  1  0
 31 32  1  0
  7  2  1  0
 17 12  1  0
 28 18  1  0
 31  4  1  0
 27 22  1  0
  1 33  1  0
  1 34  1  0
  1 35  1  0
  2 36  1  0
  3 37  1  0
  3 38  1  0
  5 39  1  0
  7 40  1  0
  8 41  1  0
 13 42  1  0
 13 43  1  0
 14 44  1  0
 14 45  1  0
 16 46  1  0
 16 47  1  0
 17 48  1  0
 17 49  1  0
 19 50  1  0
 19 51  1  0
 20 52  1  0
 20 53  1  0
 23 54  1  0
 24 55  1  0
 25 56  1  0
 26 57  1  0
 27 58  1  0
 28 59  1  0
 30 60  1  0
 30 61  1  0
 31 62  1  0
 32 63  1  0
M  END
>  <Energy>  (280) 
-48.717749455708407

>  <compound_id>  (280) 
329

>  <target_id>  (280) 
1

>  <reference_id>  (280) 
202

>  <inspiration_ids>  (280) 
[202, 128]

>  <energy_score>  (280) 
-104.05517870027228

>  <distance_score>  (280) 
1.4316971422405993

>  <path>  (280) 
/opt/xchem-fragalysis-2/maxwin/BulkDock/SCRATCH/505737/C329-P202/C329-P202.minimised.mol

>  <scratch_subdir>  (280) 
/opt/xchem-fragalysis-2/maxwin/BulkDock/SCRATCH/505737/C329-P202

>  <fragmenstein_runtime>  (280) 
20.14006233215332

>  <fragmenstein_outcome>  (280) 
too moved

>  <fragmenstein_mode>  (280) 
expansion

>  <fragmenstein_error>  (280) 


$$$$
C329-P128
     RDKit          3D

 63 67  0  0  0  0  0  0  0  0999 V2000
    2.2228   -4.6104   30.4460 C   0  0  0  0  0  0  0  0  0  0  0  0
    0.7656   -5.0415   30.5425 C   0  0  0  0  0  0  0  0  0  0  0  0
    0.5407   -6.5401   30.7506 C   0  0  0  0  0  0  0  0  0  0  0  0
   -0.8010   -6.9473   31.2340 N   0  0  0  0  0  0  0  0  0  0  0  0
   -1.4911   -5.9809   31.9719 N   0  0  0  0  0  0  0  0  0  0  0  0
   -0.6633   -5.1307   32.6745 N   0  0  0  0  0  0  0  0  0  0  0  0
   -0.0915   -4.3289   31.5816 C   0  0  0  0  0  0  0  0  0  0  0  0
    0.2039   -2.9553   31.8971 N   0  0  0  0  0  0  0  0  0  0  0  0
   -1.1960   -2.0287   32.1309 S   0  0  0  0  0  0  0  0  0  0  0  0
   -0.9923   -1.3108   33.3638 O   0  0  0  0  0  0  0  0  0  0  0  0
   -2.3832   -2.8164   31.8790 O   0  0  0  0  0  0  0  0  0  0  0  0
   -1.0195   -0.9515   30.8683 N   0  0  0  0  0  0  0  0  0  0  0  0
    0.0449    0.0778   31.0039 C   0  0  0  0  0  0  0  0  0  0  0  0
    0.2082    0.8370   29.6855 C   0  0  0  0  0  0  0  0  0  0  0  0
    0.6478   -0.0106   28.6187 O   0  0  0  0  0  0  0  0  0  0  0  0
    0.1343   -1.3458   28.7089 C   0  0  0  0  0  0  0  0  0  0  0  0
   -1.1851   -1.4514   29.4715 C   0  0  0  0  0  0  0  0  0  0  0  0
   -0.0113   -5.9808   33.7188 C   0  0  0  0  0  0  0  0  0  0  0  0
   -0.3855   -5.3948   35.1434 C   0  0  0  0  0  0  0  0  0  0  0  0
    0.3964   -4.0917   35.4194 C   0  0  0  0  0  0  0  0  0  0  0  0
    1.6795   -4.3544   34.6588 C   0  0  0  0  0  0  0  0  0  0  0  0
    2.6562   -3.2888   34.4109 C   0  0  0  0  0  0  0  0  0  0  0  0
    2.2583   -1.9480   34.3717 C   0  0  0  0  0  0  0  0  0  0  0  0
    3.1476   -0.9650   33.9467 C   0  0  0  0  0  0  0  0  0  0  0  0
    4.4484   -1.3159   33.6091 C   0  0  0  0  0  0  0  0  0  0  0  0
    4.8580   -2.6462   33.6955 C   0  0  0  0  0  0  0  0  0  0  0  0
    3.9621   -3.6380   34.0866 C   0  0  0  0  0  0  0  0  0  0  0  0
    1.7644   -5.8793   33.7723 S   0  0  0  0  0  6  0  0  0  0  0  0
    2.1906   -6.9292   34.9578 O   0  0  0  0  0  0  0  0  0  0  0  0
   -0.5792   -7.4447   33.6813 C   0  0  0  0  0  0  0  0  0  0  0  0
   -0.6820   -7.9951   32.2275 C   0  0  0  0  0  0  0  0  0  0  0  0
   -1.7393   -8.8940   32.0158 O   0  0  0  0  0  0  0  0  0  0  0  0
    2.7131   -4.5199   31.4131 H   0  0  0  0  0  0  0  0  0  0  0  0
    2.7950   -5.3089   29.8272 H   0  0  0  0  0  0  0  0  0  0  0  0
    2.2959   -3.6257   29.9733 H   0  0  0  0  0  0  0  0  0  0  0  0
    0.3442   -4.8147   29.5499 H   0  0  0  0  0  0  0  0  0  0  0  0
    0.7334   -7.0736   29.8163 H   0  0  0  0  0  0  0  0  0  0  0  0
    1.3103   -6.8883   31.4311 H   0  0  0  0  0  0  0  0  0  0  0  0
   -2.2217   -5.4957   31.4852 H   0  0  0  0  0  0  0  0  0  0  0  0
   -0.9328   -4.1522   30.8899 H   0  0  0  0  0  0  0  0  0  0  0  0
    0.7790   -2.8506   32.7219 H   0  0  0  0  0  0  0  0  0  0  0  0
   -0.2346    0.7816   31.7944 H   0  0  0  0  0  0  0  0  0  0  0  0
    0.9945   -0.4010   31.2674 H   0  0  0  0  0  0  0  0  0  0  0  0
   -0.7342    1.3041   29.3785 H   0  0  0  0  0  0  0  0  0  0  0  0
    0.9489    1.6350   29.7976 H   0  0  0  0  0  0  0  0  0  0  0  0
    0.9043   -1.9617   29.1819 H   0  0  0  0  0  0  0  0  0  0  0  0
    0.0063   -1.7116   27.6940 H   0  0  0  0  0  0  0  0  0  0  0  0
   -1.5509   -2.4808   29.4458 H   0  0  0  0  0  0  0  0  0  0  0  0
   -1.9403   -0.8233   28.9881 H   0  0  0  0  0  0  0  0  0  0  0  0
   -0.1206   -6.1254   35.9209 H   0  0  0  0  0  0  0  0  0  0  0  0
   -1.4586   -5.2245   35.2494 H   0  0  0  0  0  0  0  0  0  0  0  0
    0.5890   -3.9441   36.4841 H   0  0  0  0  0  0  0  0  0  0  0  0
   -0.1503   -3.2435   35.0087 H   0  0  0  0  0  0  0  0  0  0  0  0
    1.2569   -1.6367   34.6564 H   0  0  0  0  0  0  0  0  0  0  0  0
    2.8331    0.0750   33.9055 H   0  0  0  0  0  0  0  0  0  0  0  0
    5.1547   -0.5499   33.2966 H   0  0  0  0  0  0  0  0  0  0  0  0
    5.8851   -2.9092   33.4516 H   0  0  0  0  0  0  0  0  0  0  0  0
    4.3079   -4.6665   34.1479 H   0  0  0  0  0  0  0  0  0  0  0  0
    2.5404   -5.9446   32.6772 H   0  0  0  0  0  0  0  0  0  0  0  0
    0.0223   -8.0893   34.3191 H   0  0  0  0  0  0  0  0  0  0  0  0
   -1.5836   -7.4633   34.1307 H   0  0  0  0  0  0  0  0  0  0  0  0
    0.2007   -8.5373   32.0021 H   0  0  0  0  0  0  0  0  0  0  0  0
   -2.5569   -8.4549   32.3005 H   0  0  0  0  0  0  0  0  0  0  0  0
  1  2  1  0
  2  3  1  0
  3  4  1  0
  4  5  1  0
  5  6  1  0
  6  7  1  0
  7  8  1  0
  8  9  1  0
  9 10  2  0
  9 11  2  0
  9 12  1  0
 12 13  1  0
 13 14  1  0
 14 15  1  0
 15 16  1  0
 16 17  1  0
  6 18  1  0
 18 19  1  0
 19 20  1  0
 20 21  1  0
 21 22  1  0
 22 23  2  0
 23 24  1  0
 24 25  2  0
 25 26  1  0
 26 27  2  0
 21 28  2  0
 28 29  2  0
 18 30  1  0
 30 31  1  0
 31 32  1  0
  7  2  1  0
 17 12  1  0
 28 18  1  0
 31  4  1  0
 27 22  1  0
  1 33  1  0
  1 34  1  0
  1 35  1  0
  2 36  1  0
  3 37  1  0
  3 38  1  0
  5 39  1  0
  7 40  1  0
  8 41  1  0
 13 42  1  0
 13 43  1  0
 14 44  1  0
 14 45  1  0
 16 46  1  0
 16 47  1  0
 17 48  1  0
 17 49  1  0
 19 50  1  0
 19 51  1  0
 20 52  1  0
 20 53  1  0
 23 54  1  0
 24 55  1  0
 25 56  1  0
 26 57  1  0
 27 58  1  0
 28 59  1  0
 30 60  1  0
 30 61  1  0
 31 62  1  0
 32 63  1  0
M  END
>  <Energy>  (281) 
-47.396509499800175

>  <compound_id>  (281) 
329

>  <target_id>  (281) 
1

>  <reference_id>  (281) 
128

>  <inspiration_ids>  (281) 
[202, 128]

>  <energy_score>  (281) 
-102.733938744366

>  <distance_score>  (281) 
1.441405123924334

>  <path>  (281) 
/opt/xchem-fragalysis-2/maxwin/BulkDock/SCRATCH/505737/C329-P128/C329-P128.minimised.mol

>  <scratch_subdir>  (281) 
/opt/xchem-fragalysis-2/maxwin/BulkDock/SCRATCH/505737/C329-P128

>  <fragmenstein_runtime>  (281) 
20.19511342048645

>  <fragmenstein_outcome>  (281) 
too moved

>  <fragmenstein_mode>  (281) 
expansion

>  <fragmenstein_error>  (281) 


$$$$
C330-P202
     RDKit          3D

 64 67  0  0  0  0  0  0  0  0999 V2000
    1.5713   -5.8786   29.6895 C   0  0  0  0  0  0  0  0  0  0  0  0
    1.2638   -4.9866   30.8697 C   0  0  0  0  0  0  0  0  0  0  0  0
   -0.1511   -4.4309   30.8251 C   0  0  0  0  0  0  0  0  0  0  0  0
   -0.2043   -3.2510   31.7088 N   0  0  0  0  0  0  0  0  0  0  0  0
   -1.6396   -2.4233   31.8584 S   0  0  0  0  0  0  0  0  0  0  0  0
   -1.5593   -1.7747   33.1449 O   0  0  0  0  0  0  0  0  0  0  0  0
   -2.6910   -3.3502   31.5348 O   0  0  0  0  0  0  0  0  0  0  0  0
   -1.5061   -1.2596   30.6767 N   0  0  0  0  0  0  0  0  0  0  0  0
   -0.7392   -0.0347   31.0263 C   0  0  0  0  0  0  0  0  0  0  0  0
   -0.3224    0.7395   29.7745 C   0  0  0  0  0  0  0  0  0  0  0  0
    0.5009   -0.0434   28.9049 O   0  0  0  0  0  0  0  0  0  0  0  0
    0.0621   -1.4048   28.7837 C   0  0  0  0  0  0  0  0  0  0  0  0
   -1.3753   -1.6457   29.2497 C   0  0  0  0  0  0  0  0  0  0  0  0
    1.6409   -5.5773   32.2166 C   0  0  0  0  0  0  0  0  0  0  0  0
    1.0943   -6.8878   32.6514 N   0  0  0  0  0  0  0  0  0  0  0  0
    1.9070   -7.2817   33.7860 N   0  0  0  0  0  0  0  0  0  0  0  0
    1.5214   -6.8661   35.0047 N   0  0  0  0  0  0  0  0  0  0  0  0
    0.2501   -6.6381   35.1697 C   0  0  0  0  0  0  0  0  0  0  0  0
   -0.1248   -6.0559   36.4867 C   0  0  0  0  0  0  0  0  0  0  0  0
    0.4312   -4.8359   36.6884 C   0  0  0  0  0  0  0  0  0  0  0  0
    0.5356   -3.7809   35.5635 C   0  0  0  0  0  0  0  0  0  0  0  0
    2.0134   -3.4563   35.6362 C   0  0  0  0  0  0  0  0  0  0  0  0
    2.7242   -2.9033   34.4703 C   0  0  0  0  0  0  0  0  0  0  0  0
    2.0433   -2.0917   33.5600 C   0  0  0  0  0  0  0  0  0  0  0  0
    2.6722   -1.6437   32.3946 C   0  0  0  0  0  0  0  0  0  0  0  0
    3.9978   -1.9682   32.1515 C   0  0  0  0  0  0  0  0  0  0  0  0
    4.6933   -2.7394   33.0775 C   0  0  0  0  0  0  0  0  0  0  0  0
    4.0597   -3.2131   34.2311 C   0  0  0  0  0  0  0  0  0  0  0  0
    2.7176   -3.8185   37.2032 S   0  0  0  0  0  6  0  0  0  0  0  0
    3.7611   -5.0256   36.8277 O   0  0  0  0  0  0  0  0  0  0  0  0
    1.2649   -4.5650   37.8105 N   0  0  0  0  0  0  0  0  0  0  0  0
   -0.7807   -6.9256   34.1526 C   0  0  0  0  0  0  0  0  0  0  0  0
   -0.2699   -7.0590   32.9183 C   0  0  0  0  0  0  0  0  0  0  0  0
   -1.0394   -7.5493   31.8862 O   0  0  0  0  0  0  0  0  0  0  0  0
    0.9903   -6.8031   29.7179 H   0  0  0  0  0  0  0  0  0  0  0  0
    2.6380   -6.1129   29.6527 H   0  0  0  0  0  0  0  0  0  0  0  0
    1.3602   -5.3399   28.7633 H   0  0  0  0  0  0  0  0  0  0  0  0
    1.9296   -4.1198   30.7372 H   0  0  0  0  0  0  0  0  0  0  0  0
   -0.8798   -5.1719   31.1476 H   0  0  0  0  0  0  0  0  0  0  0  0
   -0.3907   -4.1441   29.8011 H   0  0  0  0  0  0  0  0  0  0  0  0
    0.0010   -3.5158   32.6705 H   0  0  0  0  0  0  0  0  0  0  0  0
    0.1533   -0.3080   31.5893 H   0  0  0  0  0  0  0  0  0  0  0  0
   -1.3655    0.6028   31.6582 H   0  0  0  0  0  0  0  0  0  0  0  0
    0.2494    1.6293   30.0567 H   0  0  0  0  0  0  0  0  0  0  0  0
   -1.1971    1.0824   29.2095 H   0  0  0  0  0  0  0  0  0  0  0  0
    0.1642   -1.6808   27.7384 H   0  0  0  0  0  0  0  0  0  0  0  0
    0.7688   -2.0185   29.3505 H   0  0  0  0  0  0  0  0  0  0  0  0
   -1.6876   -2.6766   29.0793 H   0  0  0  0  0  0  0  0  0  0  0  0
   -2.0564   -1.0192   28.6640 H   0  0  0  0  0  0  0  0  0  0  0  0
    1.4494   -4.8525   33.0036 H   0  0  0  0  0  0  0  0  0  0  0  0
    2.7347   -5.6596   32.1913 H   0  0  0  0  0  0  0  0  0  0  0  0
    2.8976   -7.0506   33.6775 H   0  0  0  0  0  0  0  0  0  0  0  0
   -0.1476   -6.7964   37.2785 H   0  0  0  0  0  0  0  0  0  0  0  0
   -0.0458   -2.8949   35.8368 H   0  0  0  0  0  0  0  0  0  0  0  0
    0.2184   -4.1424   34.5919 H   0  0  0  0  0  0  0  0  0  0  0  0
    1.0222   -1.7755   33.7558 H   0  0  0  0  0  0  0  0  0  0  0  0
    2.1439   -1.0205   31.6816 H   0  0  0  0  0  0  0  0  0  0  0  0
    4.4957   -1.6049   31.2559 H   0  0  0  0  0  0  0  0  0  0  0  0
    5.7382   -2.9858   32.9009 H   0  0  0  0  0  0  0  0  0  0  0  0
    4.6242   -3.8419   34.9148 H   0  0  0  0  0  0  0  0  0  0  0  0
    3.2199   -2.7838   37.9171 H   0  0  0  0  0  0  0  0  0  0  0  0
    1.4838   -5.4239   38.3117 H   0  0  0  0  0  0  0  0  0  0  0  0
   -1.8068   -7.0998   34.4289 H   0  0  0  0  0  0  0  0  0  0  0  0
   -0.3965   -8.0815   31.3864 H   0  0  0  0  0  0  0  0  0  0  0  0
  1  2  1  0
  2  3  1  0
  3  4  1  0
  4  5  1  0
  5  6  2  0
  5  7  2  0
  5  8  1  0
  8  9  1  0
  9 10  1  0
 10 11  1  0
 11 12  1  0
 12 13  1  0
  2 14  1  0
 14 15  1  0
 15 16  1  0
 16 17  1  0
 17 18  2  0
 18 19  1  0
 19 20  2  3
 20 21  1  0
 21 22  1  0
 22 23  1  0
 23 24  2  0
 24 25  1  0
 25 26  2  0
 26 27  1  0
 27 28  2  0
 22 29  2  0
 29 30  2  0
 29 31  1  0
 18 32  1  0
 32 33  2  0
 33 34  1  0
 13  8  1  0
 33 15  1  0
 31 20  1  0
 28 23  1  0
  1 35  1  0
  1 36  1  0
  1 37  1  0
  2 38  1  0
  3 39  1  0
  3 40  1  0
  4 41  1  0
  9 42  1  0
  9 43  1  0
 10 44  1  0
 10 45  1  0
 12 46  1  0
 12 47  1  0
 13 48  1  0
 13 49  1  0
 14 50  1  0
 14 51  1  0
 16 52  1  0
 19 53  1  0
 21 54  1  0
 21 55  1  0
 24 56  1  0
 25 57  1  0
 26 58  1  0
 27 59  1  0
 28 60  1  0
 29 61  1  0
 31 62  1  0
 32 63  1  0
 34 64  1  0
M  END
>  <Energy>  (282) 
-67.724921114601443

>  <compound_id>  (282) 
330

>  <target_id>  (282) 
1

>  <reference_id>  (282) 
202

>  <inspiration_ids>  (282) 
[202, 129]

>  <energy_score>  (282) 
-93.7018276657434

>  <distance_score>  (282) 
1.4941569309312823

>  <path>  (282) 
/opt/xchem-fragalysis-2/maxwin/BulkDock/SCRATCH/505737/C330-P202/C330-P202.minimised.mol

>  <scratch_subdir>  (282) 
/opt/xchem-fragalysis-2/maxwin/BulkDock/SCRATCH/505737/C330-P202

>  <fragmenstein_runtime>  (282) 
26.937921047210693

>  <fragmenstein_outcome>  (282) 
too moved

>  <fragmenstein_mode>  (282) 
expansion

>  <fragmenstein_error>  (282) 


$$$$
C330-P129
     RDKit          3D

 64 67  0  0  0  0  0  0  0  0999 V2000
    0.6494   -6.5127   29.9549 C   0  0  0  0  0  0  0  0  0  0  0  0
    0.7484   -5.4734   31.0479 C   0  0  0  0  0  0  0  0  0  0  0  0
    0.4666   -4.1042   30.4450 C   0  0  0  0  0  0  0  0  0  0  0  0
    0.3596   -3.0805   31.4690 N   0  0  0  0  0  0  0  0  0  0  0  0
   -1.1027   -2.4148   31.8743 S   0  0  0  0  0  0  0  0  0  0  0  0
   -0.9305   -1.8594   33.1939 O   0  0  0  0  0  0  0  0  0  0  0  0
   -2.1372   -3.3751   31.5711 O   0  0  0  0  0  0  0  0  0  0  0  0
   -1.1538   -1.1513   30.7831 N   0  0  0  0  0  0  0  0  0  0  0  0
   -0.2087   -0.0290   31.0366 C   0  0  0  0  0  0  0  0  0  0  0  0
   -0.0353    0.8332   29.7866 C   0  0  0  0  0  0  0  0  0  0  0  0
    0.5480    0.0834   28.7228 O   0  0  0  0  0  0  0  0  0  0  0  0
   -0.0820   -1.1877   28.5227 C   0  0  0  0  0  0  0  0  0  0  0  0
   -1.3535   -1.4383   29.3388 C   0  0  0  0  0  0  0  0  0  0  0  0
   -0.2585   -5.8390   32.1312 C   0  0  0  0  0  0  0  0  0  0  0  0
    0.0318   -7.1589   32.7192 N   0  0  0  0  0  0  0  0  0  0  0  0
    1.3060   -7.1912   33.2830 N   0  0  0  0  0  0  0  0  0  0  0  0
    1.4871   -6.8698   34.5617 N   0  0  0  0  0  0  0  0  0  0  0  0
    0.4325   -6.9744   35.3267 C   0  0  0  0  0  0  0  0  0  0  0  0
    0.6077   -6.5382   36.7330 C   0  0  0  0  0  0  0  0  0  0  0  0
    1.1628   -5.3110   36.8678 C   0  0  0  0  0  0  0  0  0  0  0  0
    0.9880   -4.1915   35.7994 C   0  0  0  0  0  0  0  0  0  0  0  0
    2.4299   -3.8039   35.6266 C   0  0  0  0  0  0  0  0  0  0  0  0
    2.8628   -3.1504   34.3994 C   0  0  0  0  0  0  0  0  0  0  0  0
    3.3298   -3.9141   33.3331 C   0  0  0  0  0  0  0  0  0  0  0  0
    3.6798   -3.2821   32.1367 C   0  0  0  0  0  0  0  0  0  0  0  0
    3.5666   -1.8963   32.0171 C   0  0  0  0  0  0  0  0  0  0  0  0
    3.1099   -1.1411   33.0966 C   0  0  0  0  0  0  0  0  0  0  0  0
    2.7476   -1.7688   34.2893 C   0  0  0  0  0  0  0  0  0  0  0  0
    3.4576   -4.2036   36.9788 S   0  0  0  0  0  6  0  0  0  0  0  0
    4.4322   -5.3375   36.3041 O   0  0  0  0  0  0  0  0  0  0  0  0
    2.1885   -5.0478   37.8204 N   0  0  0  0  0  0  0  0  0  0  0  0
   -0.8624   -7.5434   34.8930 C   0  0  0  0  0  0  0  0  0  0  0  0
   -0.9568   -7.6340   33.5585 C   0  0  0  0  0  0  0  0  0  0  0  0
   -2.0068   -8.2306   32.9247 O   0  0  0  0  0  0  0  0  0  0  0  0
    1.4348   -6.3471   29.2126 H   0  0  0  0  0  0  0  0  0  0  0  0
    0.7269   -7.5380   30.3184 H   0  0  0  0  0  0  0  0  0  0  0  0
   -0.3411   -6.4457   29.5016 H   0  0  0  0  0  0  0  0  0  0  0  0
    1.7669   -5.4643   31.4419 H   0  0  0  0  0  0  0  0  0  0  0  0
   -0.4241   -4.1313   29.8114 H   0  0  0  0  0  0  0  0  0  0  0  0
    1.2994   -3.8343   29.7853 H   0  0  0  0  0  0  0  0  0  0  0  0
    1.0415   -3.0441   32.2258 H   0  0  0  0  0  0  0  0  0  0  0  0
    0.7701   -0.4258   31.3224 H   0  0  0  0  0  0  0  0  0  0  0  0
   -0.5987    0.5834   31.8556 H   0  0  0  0  0  0  0  0  0  0  0  0
    0.6288    1.6762   30.0011 H   0  0  0  0  0  0  0  0  0  0  0  0
   -0.9875    1.2430   29.4347 H   0  0  0  0  0  0  0  0  0  0  0  0
   -0.3296   -1.2454   27.4668 H   0  0  0  0  0  0  0  0  0  0  0  0
    0.6742   -1.9486   28.7229 H   0  0  0  0  0  0  0  0  0  0  0  0
   -1.7287   -2.4493   29.1669 H   0  0  0  0  0  0  0  0  0  0  0  0
   -2.1337   -0.7573   28.9869 H   0  0  0  0  0  0  0  0  0  0  0  0
   -1.2628   -5.8625   31.6968 H   0  0  0  0  0  0  0  0  0  0  0  0
   -0.2726   -5.0876   32.9260 H   0  0  0  0  0  0  0  0  0  0  0  0
    2.0827   -6.9763   32.6685 H   0  0  0  0  0  0  0  0  0  0  0  0
    0.7366   -7.3392   37.4496 H   0  0  0  0  0  0  0  0  0  0  0  0
    0.4369   -3.3529   36.2364 H   0  0  0  0  0  0  0  0  0  0  0  0
    0.5213   -4.4855   34.8636 H   0  0  0  0  0  0  0  0  0  0  0  0
    3.4385   -4.9896   33.4473 H   0  0  0  0  0  0  0  0  0  0  0  0
    4.0628   -3.8667   31.3047 H   0  0  0  0  0  0  0  0  0  0  0  0
    3.8471   -1.4029   31.0889 H   0  0  0  0  0  0  0  0  0  0  0  0
    3.0279   -0.0603   33.0069 H   0  0  0  0  0  0  0  0  0  0  0  0
    2.3683   -1.1746   35.1168 H   0  0  0  0  0  0  0  0  0  0  0  0
    4.0662   -3.1854   37.6312 H   0  0  0  0  0  0  0  0  0  0  0  0
    2.5312   -5.9123   38.2325 H   0  0  0  0  0  0  0  0  0  0  0  0
   -1.6029   -7.9007   35.5905 H   0  0  0  0  0  0  0  0  0  0  0  0
   -1.6095   -8.6062   32.1256 H   0  0  0  0  0  0  0  0  0  0  0  0
  1  2  1  0
  2  3  1  0
  3  4  1  0
  4  5  1  0
  5  6  2  0
  5  7  2  0
  5  8  1  0
  8  9  1  0
  9 10  1  0
 10 11  1  0
 11 12  1  0
 12 13  1  0
  2 14  1  0
 14 15  1  0
 15 16  1  0
 16 17  1  0
 17 18  2  0
 18 19  1  0
 19 20  2  3
 20 21  1  0
 21 22  1  0
 22 23  1  0
 23 24  2  0
 24 25  1  0
 25 26  2  0
 26 27  1  0
 27 28  2  0
 22 29  2  0
 29 30  2  0
 29 31  1  0
 18 32  1  0
 32 33  2  0
 33 34  1  0
 13  8  1  0
 33 15  1  0
 31 20  1  0
 28 23  1  0
  1 35  1  0
  1 36  1  0
  1 37  1  0
  2 38  1  0
  3 39  1  0
  3 40  1  0
  4 41  1  0
  9 42  1  0
  9 43  1  0
 10 44  1  0
 10 45  1  0
 12 46  1  0
 12 47  1  0
 13 48  1  0
 13 49  1  0
 14 50  1  0
 14 51  1  0
 16 52  1  0
 19 53  1  0
 21 54  1  0
 21 55  1  0
 24 56  1  0
 25 57  1  0
 26 58  1  0
 27 59  1  0
 28 60  1  0
 29 61  1  0
 31 62  1  0
 32 63  1  0
 34 64  1  0
M  END
>  <Energy>  (283) 
-78.287740889498025

>  <compound_id>  (283) 
330

>  <target_id>  (283) 
1

>  <reference_id>  (283) 
129

>  <inspiration_ids>  (283) 
[202, 129]

>  <energy_score>  (283) 
-104.26464744064143

>  <distance_score>  (283) 
1.3591518877660913

>  <path>  (283) 
/opt/xchem-fragalysis-2/maxwin/BulkDock/SCRATCH/505737/C330-P129/C330-P129.minimised.mol

>  <scratch_subdir>  (283) 
/opt/xchem-fragalysis-2/maxwin/BulkDock/SCRATCH/505737/C330-P129

>  <fragmenstein_runtime>  (283) 
24.406147956848145

>  <fragmenstein_outcome>  (283) 
too moved

>  <fragmenstein_mode>  (283) 
expansion

>  <fragmenstein_error>  (283) 


$$$$
C331-P202
     RDKit          3D

 53 56  0  0  0  0  0  0  0  0999 V2000
    3.0368   -0.8323   28.3339 C   0  0  0  0  0  0  0  0  0  0  0  0
    1.6007   -1.0220   28.7176 C   0  0  0  0  0  0  0  0  0  0  0  0
    0.7396    0.0152   28.7791 C   0  0  0  0  0  0  0  0  0  0  0  0
   -0.5715   -0.1862   29.1404 N   0  0  0  0  0  0  0  0  0  0  0  0
   -1.0523   -1.4778   29.1634 N   0  0  0  0  0  0  0  0  0  0  0  0
   -1.9212   -1.6188   28.0843 N   0  0  0  0  0  0  0  0  0  0  0  0
   -0.0538   -2.5125   29.3001 C   0  0  0  0  0  0  0  0  0  0  0  0
   -0.4749   -3.9398   29.8576 C   0  0  0  0  0  0  0  0  0  0  0  0
    0.6664   -4.9363   30.0523 C   0  0  0  0  0  0  0  0  0  0  0  0
    1.7054   -4.5518   31.0599 C   0  0  0  0  0  0  0  0  0  0  0  0
    1.3819   -4.8022   32.4952 C   0  0  0  0  0  0  0  0  0  0  0  0
    0.7981   -6.1276   32.7931 N   0  0  0  0  0  0  0  0  0  0  0  0
    0.3725   -6.0369   34.2179 C   0  0  0  0  0  0  0  0  0  0  0  0
    0.8479   -4.6471   34.6838 C   0  0  0  0  0  0  0  0  0  0  0  0
    0.7527   -3.7276   33.4227 C   0  0  0  0  0  0  0  0  0  0  0  0
   -0.7338   -3.3073   33.3071 C   0  0  0  0  0  0  0  0  0  0  0  0
   -1.1388   -1.9929   32.6382 C   0  0  0  0  0  0  0  0  0  0  0  0
   -0.0022   -1.0316   32.3965 C   0  0  0  0  0  0  0  0  0  0  0  0
    0.9837   -1.1100   33.5327 C   0  0  0  0  0  0  0  0  0  0  0  0
    1.6746   -2.4716   33.5409 C   0  0  0  0  0  0  0  0  0  0  0  0
   -0.3636   -6.7373   31.7744 S   0  0  0  0  0  0  0  0  0  0  0  0
   -1.5632   -5.9730   31.9131 O   0  0  0  0  0  0  0  0  0  0  0  0
   -0.3784   -8.1726   31.8655 O   0  0  0  0  0  0  0  0  0  0  0  0
    0.2729   -6.3404   30.3069 N   0  0  0  0  0  0  0  0  0  0  0  0
    1.2259   -2.3217   29.0476 N   0  0  0  0  0  0  0  0  0  0  0  0
    3.2881   -1.4584   27.4723 H   0  0  0  0  0  0  0  0  0  0  0  0
    3.6902   -1.1146   29.1661 H   0  0  0  0  0  0  0  0  0  0  0  0
    3.2586    0.2068   28.0690 H   0  0  0  0  0  0  0  0  0  0  0  0
    1.0022    1.0383   28.5381 H   0  0  0  0  0  0  0  0  0  0  0  0
   -1.2350    0.4785   28.7463 H   0  0  0  0  0  0  0  0  0  0  0  0
   -2.3090   -2.5690   28.0103 H   0  0  0  0  0  0  0  0  0  0  0  0
   -1.4079   -1.4892   27.2051 H   0  0  0  0  0  0  0  0  0  0  0  0
   -1.1186   -4.3323   29.0663 H   0  0  0  0  0  0  0  0  0  0  0  0
   -1.0999   -3.8259   30.7316 H   0  0  0  0  0  0  0  0  0  0  0  0
    1.1922   -4.9715   29.0873 H   0  0  0  0  0  0  0  0  0  0  0  0
    2.0468   -3.5252   30.9252 H   0  0  0  0  0  0  0  0  0  0  0  0
    2.5947   -5.1570   30.8211 H   0  0  0  0  0  0  0  0  0  0  0  0
    2.4104   -4.9139   32.8944 H   0  0  0  0  0  0  0  0  0  0  0  0
   -0.7123   -6.1201   34.3384 H   0  0  0  0  0  0  0  0  0  0  0  0
    0.8460   -6.8326   34.8010 H   0  0  0  0  0  0  0  0  0  0  0  0
    0.2654   -4.2899   35.5398 H   0  0  0  0  0  0  0  0  0  0  0  0
    1.8863   -4.7234   35.0366 H   0  0  0  0  0  0  0  0  0  0  0  0
   -1.1088   -3.1945   34.3361 H   0  0  0  0  0  0  0  0  0  0  0  0
   -1.3607   -4.0923   32.9131 H   0  0  0  0  0  0  0  0  0  0  0  0
   -1.7037   -2.1591   31.7196 H   0  0  0  0  0  0  0  0  0  0  0  0
   -1.8656   -1.4985   33.2991 H   0  0  0  0  0  0  0  0  0  0  0  0
    0.5277   -1.2766   31.4795 H   0  0  0  0  0  0  0  0  0  0  0  0
   -0.3891   -0.0124   32.2890 H   0  0  0  0  0  0  0  0  0  0  0  0
    0.4806   -0.9383   34.4922 H   0  0  0  0  0  0  0  0  0  0  0  0
    1.7401   -0.3235   33.4273 H   0  0  0  0  0  0  0  0  0  0  0  0
    2.4113   -2.4650   32.7300 H   0  0  0  0  0  0  0  0  0  0  0  0
    2.2716   -2.5350   34.4597 H   0  0  0  0  0  0  0  0  0  0  0  0
    0.9629   -7.0333   30.0363 H   0  0  0  0  0  0  0  0  0  0  0  0
  1  2  1  0
  2  3  2  0
  3  4  1  0
  4  5  1  0
  5  6  1  0
  5  7  1  0
  7  8  1  0
  8  9  1  0
  9 10  1  0
 10 11  1  0
 11 12  1  0
 12 13  1  0
 13 14  1  0
 14 15  1  0
 15 16  1  0
 16 17  1  0
 17 18  1  0
 18 19  1  0
 19 20  1  0
 12 21  1  0
 21 22  2  0
 21 23  2  0
 21 24  1  0
  7 25  2  0
 25  2  1  0
 24  9  1  0
 15 11  1  0
 20 15  1  0
  1 26  1  0
  1 27  1  0
  1 28  1  0
  3 29  1  0
  4 30  1  0
  6 31  1  0
  6 32  1  0
  8 33  1  0
  8 34  1  0
  9 35  1  0
 10 36  1  0
 10 37  1  0
 11 38  1  0
 13 39  1  0
 13 40  1  0
 14 41  1  0
 14 42  1  0
 16 43  1  0
 16 44  1  0
 17 45  1  0
 17 46  1  0
 18 47  1  0
 18 48  1  0
 19 49  1  0
 19 50  1  0
 20 51  1  0
 20 52  1  0
 24 53  1  0
M  END
>  <Energy>  (284) 
-82.089208195333597

>  <compound_id>  (284) 
331

>  <target_id>  (284) 
1

>  <reference_id>  (284) 
202

>  <inspiration_ids>  (284) 
[202, 130]

>  <energy_score>  (284) 
-54.788533513218994

>  <distance_score>  (284) 
3.4213226893588153

>  <path>  (284) 
/opt/xchem-fragalysis-2/maxwin/BulkDock/SCRATCH/505737/C331-P202/C331-P202.minimised.mol

>  <scratch_subdir>  (284) 
/opt/xchem-fragalysis-2/maxwin/BulkDock/SCRATCH/505737/C331-P202

>  <fragmenstein_runtime>  (284) 
5.759464979171753

>  <fragmenstein_outcome>  (284) 
too moved

>  <fragmenstein_mode>  (284) 
expansion

>  <fragmenstein_error>  (284) 


$$$$
C331-P130
     RDKit          3D

 53 56  0  0  0  0  0  0  0  0999 V2000
   -3.3510   -1.1070   33.6984 C   0  0  0  0  0  0  0  0  0  0  0  0
   -2.6558   -1.2622   32.3792 C   0  0  0  0  0  0  0  0  0  0  0  0
   -2.2256   -0.2022   31.6618 C   0  0  0  0  0  0  0  0  0  0  0  0
   -1.5941   -0.3315   30.4470 N   0  0  0  0  0  0  0  0  0  0  0  0
   -1.4326   -1.5919   29.9549 N   0  0  0  0  0  0  0  0  0  0  0  0
   -1.8439   -1.6711   28.6249 N   0  0  0  0  0  0  0  0  0  0  0  0
   -1.7340   -2.6726   30.8721 C   0  0  0  0  0  0  0  0  0  0  0  0
   -0.9982   -3.9923   30.6492 C   0  0  0  0  0  0  0  0  0  0  0  0
   -0.9206   -5.2615   31.5206 C   0  0  0  0  0  0  0  0  0  0  0  0
    0.3145   -5.9737   30.9989 C   0  0  0  0  0  0  0  0  0  0  0  0
    1.5265   -5.5782   31.8053 C   0  0  0  0  0  0  0  0  0  0  0  0
    1.4735   -6.2100   33.1460 N   0  0  0  0  0  0  0  0  0  0  0  0
    2.5001   -5.5128   33.9623 C   0  0  0  0  0  0  0  0  0  0  0  0
    3.1500   -4.4718   33.0281 C   0  0  0  0  0  0  0  0  0  0  0  0
    2.0104   -4.0816   32.0646 C   0  0  0  0  0  0  0  0  0  0  0  0
    1.1005   -3.1035   32.8841 C   0  0  0  0  0  0  0  0  0  0  0  0
    1.5189   -1.6433   32.9092 C   0  0  0  0  0  0  0  0  0  0  0  0
    1.7616   -1.1150   31.5125 C   0  0  0  0  0  0  0  0  0  0  0  0
    2.8582   -1.9194   30.8519 C   0  0  0  0  0  0  0  0  0  0  0  0
    2.5355   -3.4092   30.7606 C   0  0  0  0  0  0  0  0  0  0  0  0
   -0.0843   -6.3729   33.8080 S   0  0  0  0  0  0  0  0  0  0  0  0
   -0.0637   -6.0802   35.2161 O   0  0  0  0  0  0  0  0  0  0  0  0
   -0.6555   -7.5939   33.2894 O   0  0  0  0  0  0  0  0  0  0  0  0
   -0.8348   -5.1167   32.9863 N   0  0  0  0  0  0  0  0  0  0  0  0
   -2.4019   -2.5679   31.9899 N   0  0  0  0  0  0  0  0  0  0  0  0
   -3.4779   -0.0549   33.9743 H   0  0  0  0  0  0  0  0  0  0  0  0
   -2.7763   -1.5962   34.4917 H   0  0  0  0  0  0  0  0  0  0  0  0
   -4.3446   -1.5651   33.6573 H   0  0  0  0  0  0  0  0  0  0  0  0
   -2.3380    0.8088   32.0026 H   0  0  0  0  0  0  0  0  0  0  0  0
   -1.8855    0.3454   29.7435 H   0  0  0  0  0  0  0  0  0  0  0  0
   -1.0492   -1.5795   27.9899 H   0  0  0  0  0  0  0  0  0  0  0  0
   -2.2821   -2.5673   28.3812 H   0  0  0  0  0  0  0  0  0  0  0  0
    0.0110   -3.6128   30.5333 H   0  0  0  0  0  0  0  0  0  0  0  0
   -1.1968   -4.2683   29.6072 H   0  0  0  0  0  0  0  0  0  0  0  0
   -1.7595   -5.9196   31.3331 H   0  0  0  0  0  0  0  0  0  0  0  0
    0.4904   -5.7671   29.9359 H   0  0  0  0  0  0  0  0  0  0  0  0
    0.1744   -7.0623   31.0328 H   0  0  0  0  0  0  0  0  0  0  0  0
    2.3520   -6.0654   31.2763 H   0  0  0  0  0  0  0  0  0  0  0  0
    2.0851   -5.0226   34.8461 H   0  0  0  0  0  0  0  0  0  0  0  0
    3.2444   -6.2362   34.3093 H   0  0  0  0  0  0  0  0  0  0  0  0
    3.5609   -3.6304   33.5954 H   0  0  0  0  0  0  0  0  0  0  0  0
    3.9909   -4.9253   32.4915 H   0  0  0  0  0  0  0  0  0  0  0  0
    0.0975   -3.0647   32.5053 H   0  0  0  0  0  0  0  0  0  0  0  0
    0.9915   -3.4187   33.9267 H   0  0  0  0  0  0  0  0  0  0  0  0
    0.7386   -1.0463   33.3963 H   0  0  0  0  0  0  0  0  0  0  0  0
    2.4241   -1.5242   33.5164 H   0  0  0  0  0  0  0  0  0  0  0  0
    2.0554   -0.0606   31.5629 H   0  0  0  0  0  0  0  0  0  0  0  0
    0.8594   -1.1668   30.9094 H   0  0  0  0  0  0  0  0  0  0  0  0
    3.7925   -1.7917   31.4134 H   0  0  0  0  0  0  0  0  0  0  0  0
    3.0479   -1.5287   29.8452 H   0  0  0  0  0  0  0  0  0  0  0  0
    1.8359   -3.5536   29.9333 H   0  0  0  0  0  0  0  0  0  0  0  0
    3.4444   -3.9311   30.4314 H   0  0  0  0  0  0  0  0  0  0  0  0
   -1.7022   -4.8172   33.4586 H   0  0  0  0  0  0  0  0  0  0  0  0
  1  2  1  0
  2  3  2  0
  3  4  1  0
  4  5  1  0
  5  6  1  0
  5  7  1  0
  7  8  1  0
  8  9  1  0
  9 10  1  0
 10 11  1  0
 11 12  1  0
 12 13  1  0
 13 14  1  0
 14 15  1  0
 15 16  1  0
 16 17  1  0
 17 18  1  0
 18 19  1  0
 19 20  1  0
 12 21  1  0
 21 22  2  0
 21 23  2  0
 21 24  1  0
  7 25  2  0
 25  2  1  0
 24  9  1  0
 15 11  1  0
 20 15  1  0
  1 26  1  0
  1 27  1  0
  1 28  1  0
  3 29  1  0
  4 30  1  0
  6 31  1  0
  6 32  1  0
  8 33  1  0
  8 34  1  0
  9 35  1  0
 10 36  1  0
 10 37  1  0
 11 38  1  0
 13 39  1  0
 13 40  1  0
 14 41  1  0
 14 42  1  0
 16 43  1  0
 16 44  1  0
 17 45  1  0
 17 46  1  0
 18 47  1  0
 18 48  1  0
 19 49  1  0
 19 50  1  0
 20 51  1  0
 20 52  1  0
 24 53  1  0
M  END
>  <Energy>  (285) 
-65.57053893939424

>  <compound_id>  (285) 
331

>  <target_id>  (285) 
1

>  <reference_id>  (285) 
130

>  <inspiration_ids>  (285) 
[202, 130]

>  <energy_score>  (285) 
-38.26986425728208

>  <distance_score>  (285) 
3.344216382156967

>  <path>  (285) 
/opt/xchem-fragalysis-2/maxwin/BulkDock/SCRATCH/505737/C331-P130/C331-P130.minimised.mol

>  <scratch_subdir>  (285) 
/opt/xchem-fragalysis-2/maxwin/BulkDock/SCRATCH/505737/C331-P130

>  <fragmenstein_runtime>  (285) 
5.304484128952026

>  <fragmenstein_outcome>  (285) 
too moved

>  <fragmenstein_mode>  (285) 
expansion

>  <fragmenstein_error>  (285) 


$$$$
C332-P202
     RDKit          3D

 63 67  0  0  0  0  0  0  0  0999 V2000
    0.8353   -3.4483   29.5739 C   0  0  0  0  0  0  0  0  0  0  0  0
    0.5666   -3.3151   31.0209 N   0  0  0  0  0  0  0  0  0  0  0  0
    0.4739   -4.6029   31.7706 C   0  0  0  0  0  0  0  0  0  0  0  0
    1.7766   -5.3606   31.9398 C   0  0  0  0  0  0  0  0  0  0  0  0
    1.3461   -6.7454   32.2255 N   0  0  0  0  0  0  0  0  0  0  0  0
    0.8606   -6.8669   33.6123 C   0  0  0  0  0  0  0  0  0  0  0  0
    1.7087   -7.7652   34.3124 O   0  0  0  0  0  0  0  0  0  0  0  0
   -0.5699   -7.3956   33.5544 C   0  0  0  0  0  0  0  0  0  0  0  0
   -0.7539   -7.8980   32.1301 C   0  0  0  0  0  0  0  0  0  0  0  0
    0.2069   -7.0371   31.3182 C   0  0  0  0  0  0  0  0  0  0  0  0
    0.5249   -7.6100   29.8923 C   0  0  0  0  0  0  0  0  0  0  0  0
    0.9289   -9.0114   29.5416 C   0  0  0  0  0  0  0  0  0  0  0  0
    0.3430  -10.0053   29.0559 N   0  0  0  0  0  0  0  0  0  0  0  0
    1.3725  -11.4576   29.3672 N   0  0  0  0  0  0  0  0  0  0  0  0
    2.6846  -11.3677   29.8216 C   0  0  0  0  0  0  0  0  0  0  0  0
    3.5525  -12.1576   31.4253 C   0  0  0  0  0  0  0  0  0  0  0  0
    4.0518  -11.8103   32.8157 C   0  0  0  0  0  0  0  0  0  0  0  0
    5.2057  -12.1148   33.7618 C   0  0  0  0  0  0  0  0  0  0  0  0
    6.1217  -11.6993   32.7711 C   0  0  0  0  0  0  0  0  0  0  0  0
    5.3764  -12.2206   31.6023 N   0  0  0  0  0  0  0  0  0  0  0  0
    2.2049   -9.5730   29.5242 O   0  0  0  0  0  0  0  0  0  0  0  0
   -0.4368   -5.6291   31.1132 C   0  0  0  0  0  0  0  0  0  0  0  0
   -0.7190   -2.2791   31.4587 S   0  0  0  0  0  0  0  0  0  0  0  0
   -0.5192   -1.9451   32.8498 O   0  0  0  0  0  0  0  0  0  0  0  0
   -1.9438   -2.9104   31.0208 O   0  0  0  0  0  0  0  0  0  0  0  0
   -0.4227   -0.9286   30.5567 N   0  0  0  0  0  0  0  0  0  0  0  0
    0.7690   -0.1031   30.8276 C   0  0  0  0  0  0  0  0  0  0  0  0
    0.6880    1.2001   30.0309 C   0  0  0  0  0  0  0  0  0  0  0  0
    0.6370    0.9921   28.6167 O   0  0  0  0  0  0  0  0  0  0  0  0
   -0.1184   -0.1580   28.2180 C   0  0  0  0  0  0  0  0  0  0  0  0
   -1.0993   -0.6893   29.2657 C   0  0  0  0  0  0  0  0  0  0  0  0
    1.4483   -2.6090   29.2390 H   0  0  0  0  0  0  0  0  0  0  0  0
   -0.0868   -3.4837   28.9875 H   0  0  0  0  0  0  0  0  0  0  0  0
    1.4074   -4.3506   29.3440 H   0  0  0  0  0  0  0  0  0  0  0  0
    0.0921   -4.3895   32.7776 H   0  0  0  0  0  0  0  0  0  0  0  0
    2.4103   -4.9417   32.7298 H   0  0  0  0  0  0  0  0  0  0  0  0
    2.3803   -5.3571   31.0263 H   0  0  0  0  0  0  0  0  0  0  0  0
    0.8850   -5.9255   34.1736 H   0  0  0  0  0  0  0  0  0  0  0  0
    1.3946   -7.7464   35.2361 H   0  0  0  0  0  0  0  0  0  0  0  0
   -1.2703   -6.5703   33.7291 H   0  0  0  0  0  0  0  0  0  0  0  0
   -0.7760   -8.1641   34.2989 H   0  0  0  0  0  0  0  0  0  0  0  0
   -1.7958   -7.8053   31.8066 H   0  0  0  0  0  0  0  0  0  0  0  0
   -0.5045   -8.9503   32.0567 H   0  0  0  0  0  0  0  0  0  0  0  0
   -0.4644   -7.5279   29.4251 H   0  0  0  0  0  0  0  0  0  0  0  0
    1.2158   -6.9218   29.3917 H   0  0  0  0  0  0  0  0  0  0  0  0
    3.0370  -13.1123   31.4719 H   0  0  0  0  0  0  0  0  0  0  0  0
    3.6929  -12.6972   33.3371 H   0  0  0  0  0  0  0  0  0  0  0  0
    4.0397  -10.7204   32.9141 H   0  0  0  0  0  0  0  0  0  0  0  0
    5.1995  -11.5060   34.6722 H   0  0  0  0  0  0  0  0  0  0  0  0
    5.3399  -13.1694   34.0519 H   0  0  0  0  0  0  0  0  0  0  0  0
    7.0710  -12.1994   32.9774 H   0  0  0  0  0  0  0  0  0  0  0  0
    6.2261  -10.6064   32.7604 H   0  0  0  0  0  0  0  0  0  0  0  0
    5.6375  -11.5446   30.8652 H   0  0  0  0  0  0  0  0  0  0  0  0
   -1.4210   -5.5564   31.5782 H   0  0  0  0  0  0  0  0  0  0  0  0
   -0.5734   -5.4228   30.0510 H   0  0  0  0  0  0  0  0  0  0  0  0
    1.6673   -0.6554   30.5345 H   0  0  0  0  0  0  0  0  0  0  0  0
    0.8290    0.1344   31.8942 H   0  0  0  0  0  0  0  0  0  0  0  0
    1.5628    1.8240   30.2399 H   0  0  0  0  0  0  0  0  0  0  0  0
   -0.1970    1.7740   30.3201 H   0  0  0  0  0  0  0  0  0  0  0  0
   -0.6644    0.1115   27.3094 H   0  0  0  0  0  0  0  0  0  0  0  0
    0.6038   -0.9330   27.9479 H   0  0  0  0  0  0  0  0  0  0  0  0
   -1.8799    0.0566   29.4473 H   0  0  0  0  0  0  0  0  0  0  0  0
   -1.5789   -1.5933   28.8810 H   0  0  0  0  0  0  0  0  0  0  0  0
  1  2  1  0
  2  3  1  0
  3  4  1  0
  4  5  1  0
  5  6  1  0
  6  7  1  0
  6  8  1  0
  8  9  1  0
  9 10  1  0
 10 11  1  0
 11 12  1  0
 12 13  2  0
 13 14  1  0
 14 15  2  0
 15 16  1  0
 16 17  1  0
 17 18  1  0
 18 19  1  0
 19 20  1  0
 15 21  1  0
 10 22  1  0
  2 23  1  0
 23 24  2  0
 23 25  2  0
 23 26  1  0
 26 27  1  0
 27 28  1  0
 28 29  1  0
 29 30  1  0
 30 31  1  0
 22  3  1  0
 31 26  1  0
 10  5  1  0
 21 12  1  0
 20 16  1  0
  1 32  1  0
  1 33  1  0
  1 34  1  0
  3 35  1  0
  4 36  1  0
  4 37  1  0
  6 38  1  0
  7 39  1  0
  8 40  1  0
  8 41  1  0
  9 42  1  0
  9 43  1  0
 11 44  1  0
 11 45  1  0
 16 46  1  0
 17 47  1  0
 17 48  1  0
 18 49  1  0
 18 50  1  0
 19 51  1  0
 19 52  1  0
 20 53  1  0
 22 54  1  0
 22 55  1  0
 27 56  1  0
 27 57  1  0
 28 58  1  0
 28 59  1  0
 30 60  1  0
 30 61  1  0
 31 62  1  0
 31 63  1  0
M  END
>  <Energy>  (286) 
376.21640735029746

>  <compound_id>  (286) 
332

>  <target_id>  (286) 
1

>  <reference_id>  (286) 
202

>  <inspiration_ids>  (286) 
[202, 131]

>  <energy_score>  (286) 
367.75507193085775

>  <distance_score>  (286) 
1.8549120153394414

>  <path>  (286) 
/opt/xchem-fragalysis-2/maxwin/BulkDock/SCRATCH/505737/C332-P202/C332-P202.minimised.mol

>  <scratch_subdir>  (286) 
/opt/xchem-fragalysis-2/maxwin/BulkDock/SCRATCH/505737/C332-P202

>  <fragmenstein_runtime>  (286) 
14.740761041641235

>  <fragmenstein_outcome>  (286) 
too moved

>  <fragmenstein_mode>  (286) 
expansion

>  <fragmenstein_error>  (286) 


$$$$
C332-P131
     RDKit          3D

 63 67  0  0  0  0  0  0  0  0999 V2000
    1.1266   -3.0810   31.2496 C   0  0  0  0  0  0  0  0  0  0  0  0
    0.2145   -2.6050   32.3169 N   0  0  0  0  0  0  0  0  0  0  0  0
   -0.1116   -3.6212   33.3901 C   0  0  0  0  0  0  0  0  0  0  0  0
    1.0673   -4.0753   34.2626 C   0  0  0  0  0  0  0  0  0  0  0  0
    0.9820   -5.5441   34.4009 N   0  0  0  0  0  0  0  0  0  0  0  0
    0.2593   -6.0056   35.5899 C   0  0  0  0  0  0  0  0  0  0  0  0
   -0.8642   -5.2027   35.8764 O   0  0  0  0  0  0  0  0  0  0  0  0
   -0.1528   -7.4129   35.1833 C   0  0  0  0  0  0  0  0  0  0  0  0
   -0.5908   -7.2521   33.7342 C   0  0  0  0  0  0  0  0  0  0  0  0
    0.2309   -6.0486   33.2315 C   0  0  0  0  0  0  0  0  0  0  0  0
    1.2094   -6.3464   32.0957 C   0  0  0  0  0  0  0  0  0  0  0  0
    1.7897   -7.6852   32.1240 C   0  0  0  0  0  0  0  0  0  0  0  0
    1.6855   -8.9534   30.8573 N   0  0  0  0  0  0  0  0  0  0  0  0
    3.1239  -10.5302   31.5350 N   0  0  0  0  0  0  0  0  0  0  0  0
    4.1141   -9.7875   32.8666 C   0  0  0  0  0  0  0  0  0  0  0  0
    5.2970  -10.2632   33.6362 C   0  0  0  0  0  0  0  0  0  0  0  0
    5.2320   -9.9235   35.1257 C   0  0  0  0  0  0  0  0  0  0  0  0
    6.6049   -9.3591   35.4724 C   0  0  0  0  0  0  0  0  0  0  0  0
    7.4786   -9.7552   34.3007 C   0  0  0  0  0  0  0  0  0  0  0  0
    6.5541   -9.6520   33.1790 N   0  0  0  0  0  0  0  0  0  0  0  0
    3.2133   -8.0818   33.3427 O   0  0  0  0  0  0  0  0  0  0  0  0
   -0.6842   -4.9046   32.8091 C   0  0  0  0  0  0  0  0  0  0  0  0
   -1.2104   -1.8432   31.7403 S   0  0  0  0  0  0  0  0  0  0  0  0
   -1.7317   -0.9894   32.7810 O   0  0  0  0  0  0  0  0  0  0  0  0
   -2.0351   -2.8690   31.1395 O   0  0  0  0  0  0  0  0  0  0  0  0
   -0.5771   -0.8902   30.5363 N   0  0  0  0  0  0  0  0  0  0  0  0
    0.2077    0.3138   30.9118 C   0  0  0  0  0  0  0  0  0  0  0  0
    0.3954    1.2545   29.7103 C   0  0  0  0  0  0  0  0  0  0  0  0
    0.7136    0.5290   28.5224 O   0  0  0  0  0  0  0  0  0  0  0  0
   -0.3175   -0.4063   28.1565 C   0  0  0  0  0  0  0  0  0  0  0  0
   -1.3202   -0.7400   29.2715 C   0  0  0  0  0  0  0  0  0  0  0  0
    2.0150   -3.5461   31.6770 H   0  0  0  0  0  0  0  0  0  0  0  0
    1.5128   -2.2451   30.6615 H   0  0  0  0  0  0  0  0  0  0  0  0
    0.6402   -3.7850   30.5709 H   0  0  0  0  0  0  0  0  0  0  0  0
   -0.8522   -3.1672   34.0622 H   0  0  0  0  0  0  0  0  0  0  0  0
    1.0735   -3.5653   35.2336 H   0  0  0  0  0  0  0  0  0  0  0  0
    2.0287   -3.8292   33.8015 H   0  0  0  0  0  0  0  0  0  0  0  0
    0.9095   -6.0199   36.4699 H   0  0  0  0  0  0  0  0  0  0  0  0
   -1.5459   -5.7677   36.2858 H   0  0  0  0  0  0  0  0  0  0  0  0
   -0.9578   -7.8270   35.7972 H   0  0  0  0  0  0  0  0  0  0  0  0
    0.7134   -8.0800   35.2397 H   0  0  0  0  0  0  0  0  0  0  0  0
   -1.6667   -7.0547   33.7187 H   0  0  0  0  0  0  0  0  0  0  0  0
   -0.4533   -8.1722   33.1648 H   0  0  0  0  0  0  0  0  0  0  0  0
    0.7020   -6.2569   31.1269 H   0  0  0  0  0  0  0  0  0  0  0  0
    2.0371   -5.6325   32.0710 H   0  0  0  0  0  0  0  0  0  0  0  0
    5.3679  -11.3520   33.5175 H   0  0  0  0  0  0  0  0  0  0  0  0
    5.0488  -10.8349   35.7073 H   0  0  0  0  0  0  0  0  0  0  0  0
    4.4501   -9.2025   35.3867 H   0  0  0  0  0  0  0  0  0  0  0  0
    6.5447   -8.2664   35.5502 H   0  0  0  0  0  0  0  0  0  0  0  0
    6.9824   -9.7452   36.4240 H   0  0  0  0  0  0  0  0  0  0  0  0
    7.8420  -10.7836   34.4098 H   0  0  0  0  0  0  0  0  0  0  0  0
    8.3375   -9.0890   34.1828 H   0  0  0  0  0  0  0  0  0  0  0  0
    6.9116  -10.1476   32.3597 H   0  0  0  0  0  0  0  0  0  0  0  0
   -1.6612   -5.0380   33.2474 H   0  0  0  0  0  0  0  0  0  0  0  0
   -0.8537   -4.8967   31.7305 H   0  0  0  0  0  0  0  0  0  0  0  0
    1.1932   -0.0180   31.2550 H   0  0  0  0  0  0  0  0  0  0  0  0
   -0.2720    0.8673   31.7246 H   0  0  0  0  0  0  0  0  0  0  0  0
    1.2115    1.9556   29.9127 H   0  0  0  0  0  0  0  0  0  0  0  0
   -0.5018    1.8527   29.5210 H   0  0  0  0  0  0  0  0  0  0  0  0
   -0.8494   -0.0045   27.2890 H   0  0  0  0  0  0  0  0  0  0  0  0
    0.1985   -1.3197   27.8465 H   0  0  0  0  0  0  0  0  0  0  0  0
   -2.0499    0.0683   29.3867 H   0  0  0  0  0  0  0  0  0  0  0  0
   -1.8622   -1.6479   28.9924 H   0  0  0  0  0  0  0  0  0  0  0  0
  1  2  1  0
  2  3  1  0
  3  4  1  0
  4  5  1  0
  5  6  1  0
  6  7  1  0
  6  8  1  0
  8  9  1  0
  9 10  1  0
 10 11  1  0
 11 12  1  0
 12 13  2  0
 13 14  1  0
 14 15  2  0
 15 16  1  0
 16 17  1  0
 17 18  1  0
 18 19  1  0
 19 20  1  0
 15 21  1  0
 10 22  1  0
  2 23  1  0
 23 24  2  0
 23 25  2  0
 23 26  1  0
 26 27  1  0
 27 28  1  0
 28 29  1  0
 29 30  1  0
 30 31  1  0
 22  3  1  0
 31 26  1  0
 10  5  1  0
 21 12  1  0
 20 16  1  0
  1 32  1  0
  1 33  1  0
  1 34  1  0
  3 35  1  0
  4 36  1  0
  4 37  1  0
  6 38  1  0
  7 39  1  0
  8 40  1  0
  8 41  1  0
  9 42  1  0
  9 43  1  0
 11 44  1  0
 11 45  1  0
 16 46  1  0
 17 47  1  0
 17 48  1  0
 18 49  1  0
 18 50  1  0
 19 51  1  0
 19 52  1  0
 20 53  1  0
 22 54  1  0
 22 55  1  0
 27 56  1  0
 27 57  1  0
 28 58  1  0
 28 59  1  0
 30 60  1  0
 30 61  1  0
 31 62  1  0
 31 63  1  0
M  END
>  <Energy>  (287) 
511.52549355207015

>  <compound_id>  (287) 
332

>  <target_id>  (287) 
1

>  <reference_id>  (287) 
131

>  <inspiration_ids>  (287) 
[202, 131]

>  <energy_score>  (287) 
503.06415813263175

>  <distance_score>  (287) 
2.1206141529653433

>  <path>  (287) 
/opt/xchem-fragalysis-2/maxwin/BulkDock/SCRATCH/505737/C332-P131/C332-P131.minimised.mol

>  <scratch_subdir>  (287) 
/opt/xchem-fragalysis-2/maxwin/BulkDock/SCRATCH/505737/C332-P131

>  <fragmenstein_runtime>  (287) 
17.609375953674316

>  <fragmenstein_outcome>  (287) 
too moved

>  <fragmenstein_mode>  (287) 
expansion

>  <fragmenstein_error>  (287) 


$$$$
C334-P202
     RDKit          3D

 53 57  0  0  0  0  0  0  0  0999 V2000
   -0.9103   -4.2279   36.1138 C   0  0  0  0  0  0  0  0  0  0  0  0
   -0.7745   -5.1086   34.9179 C   0  0  0  0  0  0  0  0  0  0  0  0
   -1.2346   -6.5354   35.0574 C   0  0  0  0  0  0  0  0  0  0  0  0
   -1.4373   -7.4008   34.1049 N   0  0  0  0  0  0  0  0  0  0  0  0
   -0.9481   -6.9804   32.9087 N   0  0  0  0  0  0  0  0  0  0  0  0
   -0.8782   -7.6591   31.7051 C   0  0  0  0  0  0  0  0  0  0  0  0
   -1.6724   -8.6835   31.4060 O   0  0  0  0  0  0  0  0  0  0  0  0
    0.1928   -7.1074   30.9991 C   0  0  0  0  0  0  0  0  0  0  0  0
    0.7495   -6.1230   31.8382 C   0  0  0  0  0  0  0  0  0  0  0  0
    2.0759   -5.3466   31.9634 C   0  0  0  0  0  0  0  0  0  0  0  0
    3.0307   -5.0844   31.1054 N   0  0  0  0  0  0  0  0  0  0  0  0
    3.8793   -4.1523   31.7219 N   0  0  0  0  0  0  0  0  0  0  0  0
    3.3540   -3.8352   32.8878 C   0  0  0  0  0  0  0  0  0  0  0  0
    3.3316   -2.5463   33.5444 C   0  0  0  0  0  0  0  0  0  0  0  0
    3.6183   -1.4420   32.7473 C   0  0  0  0  0  0  0  0  0  0  0  0
    3.2807   -0.1671   33.1674 C   0  0  0  0  0  0  0  0  0  0  0  0
    2.6777    0.0160   34.4019 C   0  0  0  0  0  0  0  0  0  0  0  0
    2.4582   -1.0701   35.2391 C   0  0  0  0  0  0  0  0  0  0  0  0
    2.7944   -2.3522   34.8194 C   0  0  0  0  0  0  0  0  0  0  0  0
    2.4637   -4.8161   33.1753 N   0  0  0  0  0  0  0  0  0  0  0  0
   -0.2278   -5.8399   32.7529 C   0  0  0  0  0  0  0  0  0  0  0  0
   -0.4569   -4.7972   33.6559 C   0  0  0  0  0  0  0  0  0  0  0  0
   -0.1292   -3.4645   33.2768 N   0  0  0  0  0  0  0  0  0  0  0  0
   -1.2837   -2.7572   32.2480 S   0  0  0  0  0  0  0  0  0  0  0  0
   -1.7301   -1.5786   32.9528 O   0  0  0  0  0  0  0  0  0  0  0  0
   -2.2190   -3.7542   31.7832 O   0  0  0  0  0  0  0  0  0  0  0  0
   -0.3282   -2.2764   30.9574 N   0  0  0  0  0  0  0  0  0  0  0  0
    0.5204   -1.0679   31.1646 C   0  0  0  0  0  0  0  0  0  0  0  0
   -0.0913    0.1549   30.4754 C   0  0  0  0  0  0  0  0  0  0  0  0
   -0.1703    0.0117   29.0548 O   0  0  0  0  0  0  0  0  0  0  0  0
   -0.3032   -1.3517   28.6258 C   0  0  0  0  0  0  0  0  0  0  0  0
   -1.0395   -2.2347   29.6353 C   0  0  0  0  0  0  0  0  0  0  0  0
   -0.9929   -3.1699   35.8509 H   0  0  0  0  0  0  0  0  0  0  0  0
   -1.8043   -4.4819   36.6902 H   0  0  0  0  0  0  0  0  0  0  0  0
   -0.0410   -4.3512   36.7672 H   0  0  0  0  0  0  0  0  0  0  0  0
   -1.4733   -6.8405   36.0863 H   0  0  0  0  0  0  0  0  0  0  0  0
   -2.2411   -8.8733   32.1848 H   0  0  0  0  0  0  0  0  0  0  0  0
    0.5914   -7.5099   30.0793 H   0  0  0  0  0  0  0  0  0  0  0  0
    4.0387   -1.5721   31.7497 H   0  0  0  0  0  0  0  0  0  0  0  0
    3.4815    0.6874   32.5248 H   0  0  0  0  0  0  0  0  0  0  0  0
    2.4144    1.0190   34.7313 H   0  0  0  0  0  0  0  0  0  0  0  0
    2.0237   -0.9117   36.2236 H   0  0  0  0  0  0  0  0  0  0  0  0
    2.5912   -3.1887   35.4810 H   0  0  0  0  0  0  0  0  0  0  0  0
    1.9030   -4.8430   34.0046 H   0  0  0  0  0  0  0  0  0  0  0  0
   -0.0226   -2.7878   34.0327 H   0  0  0  0  0  0  0  0  0  0  0  0
    0.6537   -0.8664   32.2298 H   0  0  0  0  0  0  0  0  0  0  0  0
    1.5060   -1.2872   30.7398 H   0  0  0  0  0  0  0  0  0  0  0  0
   -1.1021    0.3503   30.8513 H   0  0  0  0  0  0  0  0  0  0  0  0
    0.5122    1.0445   30.6816 H   0  0  0  0  0  0  0  0  0  0  0  0
   -0.8567   -1.3310   27.6857 H   0  0  0  0  0  0  0  0  0  0  0  0
    0.6999   -1.7429   28.4233 H   0  0  0  0  0  0  0  0  0  0  0  0
   -2.0337   -1.8148   29.7934 H   0  0  0  0  0  0  0  0  0  0  0  0
   -1.1277   -3.2539   29.2469 H   0  0  0  0  0  0  0  0  0  0  0  0
  1  2  1  0
  2  3  1  0
  3  4  2  0
  4  5  1  0
  5  6  1  0
  6  7  1  0
  6  8  2  0
  8  9  1  0
  9 10  1  0
 10 11  2  0
 11 12  1  0
 12 13  2  0
 13 14  1  0
 14 15  2  0
 15 16  1  0
 16 17  2  0
 17 18  1  0
 18 19  2  0
 13 20  1  0
  9 21  2  0
 21 22  1  0
 22 23  1  0
 23 24  1  0
 24 25  2  0
 24 26  2  0
 24 27  1  0
 27 28  1  0
 28 29  1  0
 29 30  1  0
 30 31  1  0
 31 32  1  0
 22  2  2  0
 32 27  1  0
 21  5  1  0
 20 10  1  0
 19 14  1  0
  1 33  1  0
  1 34  1  0
  1 35  1  0
  3 36  1  0
  7 37  1  0
  8 38  1  0
 15 39  1  0
 16 40  1  0
 17 41  1  0
 18 42  1  0
 19 43  1  0
 20 44  1  0
 23 45  1  0
 28 46  1  0
 28 47  1  0
 29 48  1  0
 29 49  1  0
 31 50  1  0
 31 51  1  0
 32 52  1  0
 32 53  1  0
M  END
>  <Energy>  (288) 
-41.343856381970781

>  <compound_id>  (288) 
334

>  <target_id>  (288) 
1

>  <reference_id>  (288) 
202

>  <inspiration_ids>  (288) 
[202, 133]

>  <energy_score>  (288) 
-53.955725599257676

>  <distance_score>  (288) 
2.3075358961071437

>  <path>  (288) 
/opt/xchem-fragalysis-2/maxwin/BulkDock/SCRATCH/505737/C334-P202/C334-P202.minimised.mol

>  <scratch_subdir>  (288) 
/opt/xchem-fragalysis-2/maxwin/BulkDock/SCRATCH/505737/C334-P202

>  <fragmenstein_runtime>  (288) 
24.47676682472229

>  <fragmenstein_outcome>  (288) 
too moved

>  <fragmenstein_mode>  (288) 
expansion

>  <fragmenstein_error>  (288) 


$$$$
C334-P133
     RDKit          3D

 53 57  0  0  0  0  0  0  0  0999 V2000
   -1.0451   -4.5258   36.1077 C   0  0  0  0  0  0  0  0  0  0  0  0
   -0.8913   -5.2926   34.8378 C   0  0  0  0  0  0  0  0  0  0  0  0
   -1.2900   -6.7415   34.8488 C   0  0  0  0  0  0  0  0  0  0  0  0
   -1.3855   -7.5338   33.8245 N   0  0  0  0  0  0  0  0  0  0  0  0
   -0.8901   -7.0041   32.6797 N   0  0  0  0  0  0  0  0  0  0  0  0
   -0.6498   -7.6309   31.4668 C   0  0  0  0  0  0  0  0  0  0  0  0
   -1.2390   -8.7764   31.1325 O   0  0  0  0  0  0  0  0  0  0  0  0
    0.3706   -6.9189   30.8405 C   0  0  0  0  0  0  0  0  0  0  0  0
    0.7954   -5.9541   31.7685 C   0  0  0  0  0  0  0  0  0  0  0  0
    2.0926   -5.1528   32.0159 C   0  0  0  0  0  0  0  0  0  0  0  0
    3.1363   -4.9307   31.2544 N   0  0  0  0  0  0  0  0  0  0  0  0
    3.9745   -4.0514   31.9491 N   0  0  0  0  0  0  0  0  0  0  0  0
    3.3479   -3.6859   33.0476 C   0  0  0  0  0  0  0  0  0  0  0  0
    3.3244   -2.3856   33.6770 C   0  0  0  0  0  0  0  0  0  0  0  0
    3.7037   -1.3106   32.8786 C   0  0  0  0  0  0  0  0  0  0  0  0
    3.3443   -0.0214   33.2290 C   0  0  0  0  0  0  0  0  0  0  0  0
    2.6347    0.2044   34.3987 C   0  0  0  0  0  0  0  0  0  0  0  0
    2.3274   -0.8529   35.2455 C   0  0  0  0  0  0  0  0  0  0  0  0
    2.6808   -2.1499   34.8942 C   0  0  0  0  0  0  0  0  0  0  0  0
    2.3578   -4.5907   33.2420 N   0  0  0  0  0  0  0  0  0  0  0  0
   -0.2534   -5.7989   32.6334 C   0  0  0  0  0  0  0  0  0  0  0  0
   -0.5742   -4.8528   33.6121 C   0  0  0  0  0  0  0  0  0  0  0  0
   -0.2631   -3.4759   33.3864 N   0  0  0  0  0  0  0  0  0  0  0  0
   -1.3155   -2.7078   32.2930 S   0  0  0  0  0  0  0  0  0  0  0  0
   -1.6811   -1.4711   32.9426 O   0  0  0  0  0  0  0  0  0  0  0  0
   -2.3192   -3.6389   31.8393 O   0  0  0  0  0  0  0  0  0  0  0  0
   -0.3061   -2.3536   31.0011 N   0  0  0  0  0  0  0  0  0  0  0  0
    0.6447   -1.2199   31.1980 C   0  0  0  0  0  0  0  0  0  0  0  0
    0.1365    0.0496   30.5079 C   0  0  0  0  0  0  0  0  0  0  0  0
    0.0335   -0.0875   29.0882 O   0  0  0  0  0  0  0  0  0  0  0  0
   -0.2119   -1.4362   28.6631 C   0  0  0  0  0  0  0  0  0  0  0  0
   -1.0190   -2.2480   29.6785 C   0  0  0  0  0  0  0  0  0  0  0  0
   -1.3469   -3.4889   35.9346 H   0  0  0  0  0  0  0  0  0  0  0  0
   -1.8046   -4.9724   36.7536 H   0  0  0  0  0  0  0  0  0  0  0  0
   -0.0990   -4.5244   36.6582 H   0  0  0  0  0  0  0  0  0  0  0  0
   -1.5790   -7.1428   35.8329 H   0  0  0  0  0  0  0  0  0  0  0  0
   -0.5658   -9.3241   30.6745 H   0  0  0  0  0  0  0  0  0  0  0  0
    0.8559   -7.2111   29.9238 H   0  0  0  0  0  0  0  0  0  0  0  0
    4.2053   -1.4755   31.9248 H   0  0  0  0  0  0  0  0  0  0  0  0
    3.6097    0.8118   32.5818 H   0  0  0  0  0  0  0  0  0  0  0  0
    2.3533    1.2193   34.6721 H   0  0  0  0  0  0  0  0  0  0  0  0
    1.8056   -0.6605   36.1800 H   0  0  0  0  0  0  0  0  0  0  0  0
    2.4016   -2.9661   35.5537 H   0  0  0  0  0  0  0  0  0  0  0  0
    1.6969   -4.5438   33.9922 H   0  0  0  0  0  0  0  0  0  0  0  0
   -0.3058   -2.8778   34.2128 H   0  0  0  0  0  0  0  0  0  0  0  0
    0.7966   -1.0291   32.2621 H   0  0  0  0  0  0  0  0  0  0  0  0
    1.6074   -1.5254   30.7733 H   0  0  0  0  0  0  0  0  0  0  0  0
   -0.8506    0.3312   30.8906 H   0  0  0  0  0  0  0  0  0  0  0  0
    0.8156    0.8844   30.7079 H   0  0  0  0  0  0  0  0  0  0  0  0
   -0.7612   -1.3741   27.7218 H   0  0  0  0  0  0  0  0  0  0  0  0
    0.7547   -1.9110   28.4613 H   0  0  0  0  0  0  0  0  0  0  0  0
   -1.9740   -1.7412   29.8376 H   0  0  0  0  0  0  0  0  0  0  0  0
   -1.1959   -3.2568   29.2943 H   0  0  0  0  0  0  0  0  0  0  0  0
  1  2  1  0
  2  3  1  0
  3  4  2  0
  4  5  1  0
  5  6  1  0
  6  7  1  0
  6  8  2  0
  8  9  1  0
  9 10  1  0
 10 11  2  0
 11 12  1  0
 12 13  2  0
 13 14  1  0
 14 15  2  0
 15 16  1  0
 16 17  2  0
 17 18  1  0
 18 19  2  0
 13 20  1  0
  9 21  2  0
 21 22  1  0
 22 23  1  0
 23 24  1  0
 24 25  2  0
 24 26  2  0
 24 27  1  0
 27 28  1  0
 28 29  1  0
 29 30  1  0
 30 31  1  0
 31 32  1  0
 22  2  2  0
 32 27  1  0
 21  5  1  0
 20 10  1  0
 19 14  1  0
  1 33  1  0
  1 34  1  0
  1 35  1  0
  3 36  1  0
  7 37  1  0
  8 38  1  0
 15 39  1  0
 16 40  1  0
 17 41  1  0
 18 42  1  0
 19 43  1  0
 20 44  1  0
 23 45  1  0
 28 46  1  0
 28 47  1  0
 29 48  1  0
 29 49  1  0
 31 50  1  0
 31 51  1  0
 32 52  1  0
 32 53  1  0
M  END
>  <Energy>  (289) 
-38.467832941779996

>  <compound_id>  (289) 
334

>  <target_id>  (289) 
1

>  <reference_id>  (289) 
133

>  <inspiration_ids>  (289) 
[202, 133]

>  <energy_score>  (289) 
-51.07970215906735

>  <distance_score>  (289) 
2.3275653299239454

>  <path>  (289) 
/opt/xchem-fragalysis-2/maxwin/BulkDock/SCRATCH/505737/C334-P133/C334-P133.minimised.mol

>  <scratch_subdir>  (289) 
/opt/xchem-fragalysis-2/maxwin/BulkDock/SCRATCH/505737/C334-P133

>  <fragmenstein_runtime>  (289) 
25.812317848205566

>  <fragmenstein_outcome>  (289) 
too moved

>  <fragmenstein_mode>  (289) 
expansion

>  <fragmenstein_error>  (289) 


$$$$
C337-P202
     RDKit          3D

 74 78  0  0  0  0  0  0  0  0999 V2000
   -0.2601   -6.7683   35.5197 C   0  0  0  0  0  0  0  0  0  0  0  0
   -0.2919   -6.9701   34.0358 C   0  0  0  0  0  0  0  0  0  0  0  0
   -1.2873   -7.7198   33.4528 C   0  0  0  0  0  0  0  0  0  0  0  0
   -1.2310   -7.8417   32.0874 C   0  0  0  0  0  0  0  0  0  0  0  0
   -2.1283   -8.5851   31.3912 O   0  0  0  0  0  0  0  0  0  0  0  0
   -0.3256   -7.2457   31.3153 N   0  0  0  0  0  0  0  0  0  0  0  0
    0.5697   -6.4911   31.9645 C   0  0  0  0  0  0  0  0  0  0  0  0
    1.4725   -5.6445   31.1283 C   0  0  0  0  0  0  0  0  0  0  0  0
    0.7247   -4.4367   30.5986 C   0  0  0  0  0  0  0  0  0  0  0  0
    0.3966   -3.5195   31.6807 N   0  0  0  0  0  0  0  0  0  0  0  0
   -1.0285   -2.6969   31.7266 S   0  0  0  0  0  0  0  0  0  0  0  0
   -1.1248   -2.0810   33.0265 O   0  0  0  0  0  0  0  0  0  0  0  0
   -2.0709   -3.5592   31.2314 O   0  0  0  0  0  0  0  0  0  0  0  0
   -0.6766   -1.5193   30.6240 N   0  0  0  0  0  0  0  0  0  0  0  0
   -0.1421   -0.2261   31.0548 C   0  0  0  0  0  0  0  0  0  0  0  0
   -0.6803    0.8501   30.1126 C   0  0  0  0  0  0  0  0  0  0  0  0
   -0.4101    0.6698   28.7232 O   0  0  0  0  0  0  0  0  0  0  0  0
    0.0808   -0.6230   28.3758 C   0  0  0  0  0  0  0  0  0  0  0  0
    1.5363   -0.4826   28.3813 N   0  0  0  0  0  0  0  0  0  0  0  0
    2.3507   -1.6861   28.3401 C   0  0  0  0  0  0  0  0  0  0  0  0
    3.7556   -1.3884   27.7041 C   0  0  0  0  0  0  0  0  0  0  0  0
    4.3840   -0.1796   28.2877 N   0  0  0  0  0  0  0  0  0  0  0  0
    4.6991   -2.5329   27.8348 C   0  0  0  0  0  0  0  0  0  0  0  0
    5.3322   -2.9739   26.7038 O   0  0  0  0  0  0  0  0  0  0  0  0
    6.1040   -4.0097   27.1389 C   0  0  0  0  0  0  0  0  0  0  0  0
    5.9953   -4.2842   28.4210 N   0  0  0  0  0  0  0  0  0  0  0  0
    5.1407   -3.3072   28.8924 C   0  0  0  0  0  0  0  0  0  0  0  0
    4.6682   -3.1802   30.2705 C   0  0  0  0  0  0  0  0  0  0  0  0
    4.1945   -4.1021   30.8107 O   0  0  0  0  0  0  0  0  0  0  0  0
    4.8180   -1.7070   30.7387 N   0  0  0  0  0  0  0  0  0  0  0  0
    4.3534   -1.0768   31.8713 C   0  0  0  0  0  0  0  0  0  0  0  0
    4.4673    0.2669   31.8633 C   0  0  0  0  0  0  0  0  0  0  0  0
    3.7143    1.0831   32.6622 N   0  0  0  0  0  0  0  0  0  0  0  0
    2.6700    0.6315   33.4294 C   0  0  0  0  0  0  0  0  0  0  0  0
    1.8683    1.4012   33.9433 O   0  0  0  0  0  0  0  0  0  0  0  0
    2.5795   -0.8405   33.5877 C   0  0  0  0  0  0  0  0  0  0  0  0
    1.6029   -1.3613   34.4342 C   0  0  0  0  0  0  0  0  0  0  0  0
    1.5826   -2.7241   34.7024 C   0  0  0  0  0  0  0  0  0  0  0  0
    2.5776   -3.5444   34.1874 C   0  0  0  0  0  0  0  0  0  0  0  0
    3.5443   -3.0157   33.3293 C   0  0  0  0  0  0  0  0  0  0  0  0
    3.5048   -1.6760   32.9313 C   0  0  0  0  0  0  0  0  0  0  0  0
   -0.6839   -1.7461   29.1609 C   0  0  0  0  0  0  0  0  0  0  0  0
    0.6645   -6.3739   33.3042 N   0  0  0  0  0  0  0  0  0  0  0  0
    0.6399   -6.2220   35.8194 H   0  0  0  0  0  0  0  0  0  0  0  0
   -0.2577   -7.7340   36.0349 H   0  0  0  0  0  0  0  0  0  0  0  0
   -1.1330   -6.1914   35.8396 H   0  0  0  0  0  0  0  0  0  0  0  0
   -2.0484   -8.1957   34.0499 H   0  0  0  0  0  0  0  0  0  0  0  0
   -2.7884   -8.9711   31.9977 H   0  0  0  0  0  0  0  0  0  0  0  0
    1.8288   -6.2208   30.2715 H   0  0  0  0  0  0  0  0  0  0  0  0
    2.3403   -5.3553   31.7241 H   0  0  0  0  0  0  0  0  0  0  0  0
    1.3745   -3.9198   29.8902 H   0  0  0  0  0  0  0  0  0  0  0  0
   -0.1698   -4.7570   30.0550 H   0  0  0  0  0  0  0  0  0  0  0  0
    1.1572   -3.0619   32.1703 H   0  0  0  0  0  0  0  0  0  0  0  0
    0.9496   -0.2642   31.0446 H   0  0  0  0  0  0  0  0  0  0  0  0
   -0.4573    0.0303   32.0699 H   0  0  0  0  0  0  0  0  0  0  0  0
   -1.7694    0.8956   30.2096 H   0  0  0  0  0  0  0  0  0  0  0  0
   -0.2622    1.8194   30.3980 H   0  0  0  0  0  0  0  0  0  0  0  0
   -0.2044   -0.7525   27.3347 H   0  0  0  0  0  0  0  0  0  0  0  0
    1.8095    0.1141   29.1547 H   0  0  0  0  0  0  0  0  0  0  0  0
    1.8714   -2.4900   27.7766 H   0  0  0  0  0  0  0  0  0  0  0  0
    2.4535   -2.0471   29.3657 H   0  0  0  0  0  0  0  0  0  0  0  0
    3.6044   -1.1709   26.6408 H   0  0  0  0  0  0  0  0  0  0  0  0
    5.1294    0.0990   27.6427 H   0  0  0  0  0  0  0  0  0  0  0  0
    3.6796    0.5599   28.1754 H   0  0  0  0  0  0  0  0  0  0  0  0
    6.7162   -4.5036   26.3945 H   0  0  0  0  0  0  0  0  0  0  0  0
    5.2081   -1.1451   29.9791 H   0  0  0  0  0  0  0  0  0  0  0  0
    5.0696    0.7955   31.1288 H   0  0  0  0  0  0  0  0  0  0  0  0
    3.7747    2.0905   32.5601 H   0  0  0  0  0  0  0  0  0  0  0  0
    0.8606   -0.7133   34.8961 H   0  0  0  0  0  0  0  0  0  0  0  0
    0.8107   -3.1387   35.3478 H   0  0  0  0  0  0  0  0  0  0  0  0
    2.5966   -4.6012   34.4454 H   0  0  0  0  0  0  0  0  0  0  0  0
    4.3312   -3.6791   32.9853 H   0  0  0  0  0  0  0  0  0  0  0  0
   -1.7330   -1.7229   28.8429 H   0  0  0  0  0  0  0  0  0  0  0  0
   -0.2806   -2.7213   28.8915 H   0  0  0  0  0  0  0  0  0  0  0  0
  1  2  1  0
  2  3  2  0
  3  4  1  0
  4  5  1  0
  4  6  2  0
  6  7  1  0
  7  8  1  0
  8  9  1  0
  9 10  1  0
 10 11  1  0
 11 12  2  0
 11 13  2  0
 11 14  1  0
 14 15  1  0
 15 16  1  0
 16 17  1  0
 17 18  1  0
 18 19  1  0
 19 20  1  0
 20 21  1  0
 21 22  1  0
 21 23  1  0
 23 24  1  0
 24 25  1  0
 25 26  2  0
 26 27  1  0
 27 28  1  0
 28 29  2  0
 28 30  1  0
 30 31  1  0
 31 32  2  0
 32 33  1  0
 33 34  1  0
 34 35  2  0
 34 36  1  0
 36 37  2  0
 37 38  1  0
 38 39  2  0
 39 40  1  0
 40 41  2  0
 18 42  1  0
  7 43  2  0
 43  2  1  0
 42 14  1  0
 27 23  2  0
 41 31  1  0
 41 36  1  0
  1 44  1  0
  1 45  1  0
  1 46  1  0
  3 47  1  0
  5 48  1  0
  8 49  1  0
  8 50  1  0
  9 51  1  0
  9 52  1  0
 10 53  1  0
 15 54  1  0
 15 55  1  0
 16 56  1  0
 16 57  1  0
 18 58  1  0
 19 59  1  0
 20 60  1  0
 20 61  1  0
 21 62  1  0
 22 63  1  0
 22 64  1  0
 25 65  1  0
 30 66  1  0
 32 67  1  0
 33 68  1  0
 37 69  1  0
 38 70  1  0
 39 71  1  0
 40 72  1  0
 42 73  1  0
 42 74  1  0
M  END
>  <Energy>  (290) 
-70.62678240058429

>  <compound_id>  (290) 
337

>  <target_id>  (290) 
1

>  <reference_id>  (290) 
202

>  <inspiration_ids>  (290) 
[202, 136]

>  <energy_score>  (290) 
-272.16658964859766

>  <distance_score>  (290) 
1.1390590367337554

>  <path>  (290) 
/opt/xchem-fragalysis-2/maxwin/BulkDock/SCRATCH/505737/C337-P202/C337-P202.minimised.mol

>  <scratch_subdir>  (290) 
/opt/xchem-fragalysis-2/maxwin/BulkDock/SCRATCH/505737/C337-P202

>  <fragmenstein_runtime>  (290) 
50.18743681907654

>  <fragmenstein_outcome>  (290) 
too moved

>  <fragmenstein_mode>  (290) 
expansion

>  <fragmenstein_error>  (290) 


$$$$
C337-P136
     RDKit          3D

 74 78  0  0  0  0  0  0  0  0999 V2000
   -0.0637   -6.7273   35.5198 C   0  0  0  0  0  0  0  0  0  0  0  0
   -0.1696   -6.8520   34.0292 C   0  0  0  0  0  0  0  0  0  0  0  0
   -1.1505   -7.6432   33.4784 C   0  0  0  0  0  0  0  0  0  0  0  0
   -1.1643   -7.7194   32.1102 C   0  0  0  0  0  0  0  0  0  0  0  0
   -2.0693   -8.4971   31.4544 O   0  0  0  0  0  0  0  0  0  0  0  0
   -0.3281   -7.0518   31.3093 N   0  0  0  0  0  0  0  0  0  0  0  0
    0.5646   -6.2662   31.9293 C   0  0  0  0  0  0  0  0  0  0  0  0
    1.4126   -5.3702   31.0721 C   0  0  0  0  0  0  0  0  0  0  0  0
    0.6128   -4.1481   30.6345 C   0  0  0  0  0  0  0  0  0  0  0  0
    0.3875   -3.2251   31.7677 N   0  0  0  0  0  0  0  0  0  0  0  0
   -0.9242   -2.1877   31.6664 S   0  0  0  0  0  0  0  0  0  0  0  0
   -1.0541   -1.5967   32.9759 O   0  0  0  0  0  0  0  0  0  0  0  0
   -2.0185   -2.9174   31.0729 O   0  0  0  0  0  0  0  0  0  0  0  0
   -0.3591   -1.0329   30.6272 N   0  0  0  0  0  0  0  0  0  0  0  0
    0.6740   -0.0966   31.0982 C   0  0  0  0  0  0  0  0  0  0  0  0
    0.6951    1.1209   30.1771 C   0  0  0  0  0  0  0  0  0  0  0  0
    1.0844    0.8256   28.8355 O   0  0  0  0  0  0  0  0  0  0  0  0
    0.7790   -0.4981   28.4034 C   0  0  0  0  0  0  0  0  0  0  0  0
    2.0172   -1.3067   28.4406 N   0  0  0  0  0  0  0  0  0  0  0  0
    3.0004   -0.8726   27.4055 C   0  0  0  0  0  0  0  0  0  0  0  0
    4.2227   -0.0061   27.8486 C   0  0  0  0  0  0  0  0  0  0  0  0
    3.8254    1.3583   28.1909 N   0  0  0  0  0  0  0  0  0  0  0  0
    5.0141   -0.7258   28.8906 C   0  0  0  0  0  0  0  0  0  0  0  0
    5.7785   -1.7764   28.4373 O   0  0  0  0  0  0  0  0  0  0  0  0
    6.2789   -2.3461   29.5625 C   0  0  0  0  0  0  0  0  0  0  0  0
    5.8927   -1.7919   30.6878 N   0  0  0  0  0  0  0  0  0  0  0  0
    5.1434   -0.6971   30.2659 C   0  0  0  0  0  0  0  0  0  0  0  0
    4.5187    0.2364   31.2039 C   0  0  0  0  0  0  0  0  0  0  0  0
    4.3569    1.3837   30.9057 O   0  0  0  0  0  0  0  0  0  0  0  0
    4.1120   -0.4946   32.3659 N   0  0  0  0  0  0  0  0  0  0  0  0
    3.3435   -0.1254   33.4347 C   0  0  0  0  0  0  0  0  0  0  0  0
    3.0599    1.1622   33.6934 C   0  0  0  0  0  0  0  0  0  0  0  0
    2.1854    1.5394   34.6759 N   0  0  0  0  0  0  0  0  0  0  0  0
    1.4720    0.6620   35.4561 C   0  0  0  0  0  0  0  0  0  0  0  0
    0.6785    1.0555   36.3029 O   0  0  0  0  0  0  0  0  0  0  0  0
    1.7328   -0.7806   35.2164 C   0  0  0  0  0  0  0  0  0  0  0  0
    1.0124   -1.7285   35.9495 C   0  0  0  0  0  0  0  0  0  0  0  0
    1.2565   -3.0845   35.7593 C   0  0  0  0  0  0  0  0  0  0  0  0
    2.2286   -3.4930   34.8527 C   0  0  0  0  0  0  0  0  0  0  0  0
    2.9401   -2.5473   34.1099 C   0  0  0  0  0  0  0  0  0  0  0  0
    2.6937   -1.1714   34.2651 C   0  0  0  0  0  0  0  0  0  0  0  0
   -0.4413   -1.1617   29.1529 C   0  0  0  0  0  0  0  0  0  0  0  0
    0.6932   -6.1481   33.2668 N   0  0  0  0  0  0  0  0  0  0  0  0
    0.9162   -6.3345   35.8060 H   0  0  0  0  0  0  0  0  0  0  0  0
   -0.1802   -7.7049   35.9987 H   0  0  0  0  0  0  0  0  0  0  0  0
   -0.8385   -6.0516   35.8945 H   0  0  0  0  0  0  0  0  0  0  0  0
   -1.8430   -8.1884   34.1021 H   0  0  0  0  0  0  0  0  0  0  0  0
   -2.6738   -8.9098   32.1026 H   0  0  0  0  0  0  0  0  0  0  0  0
    1.7324   -5.9284   30.1854 H   0  0  0  0  0  0  0  0  0  0  0  0
    2.3164   -5.0742   31.6172 H   0  0  0  0  0  0  0  0  0  0  0  0
    1.1866   -3.6128   29.8747 H   0  0  0  0  0  0  0  0  0  0  0  0
   -0.3311   -4.4678   30.1826 H   0  0  0  0  0  0  0  0  0  0  0  0
    0.2963   -3.7062   32.6700 H   0  0  0  0  0  0  0  0  0  0  0  0
    1.6399   -0.6054   31.0927 H   0  0  0  0  0  0  0  0  0  0  0  0
    0.4483    0.2435   32.1126 H   0  0  0  0  0  0  0  0  0  0  0  0
   -0.2936    1.5831   30.1305 H   0  0  0  0  0  0  0  0  0  0  0  0
    1.3904    1.8733   30.5623 H   0  0  0  0  0  0  0  0  0  0  0  0
    0.4569   -0.4113   27.3630 H   0  0  0  0  0  0  0  0  0  0  0  0
    1.7280   -2.2464   28.1759 H   0  0  0  0  0  0  0  0  0  0  0  0
    2.5024   -0.3648   26.5745 H   0  0  0  0  0  0  0  0  0  0  0  0
    3.4120   -1.7972   26.9776 H   0  0  0  0  0  0  0  0  0  0  0  0
    4.8751    0.0898   26.9705 H   0  0  0  0  0  0  0  0  0  0  0  0
    2.8422    1.3354   28.4924 H   0  0  0  0  0  0  0  0  0  0  0  0
    4.3269    1.6903   29.0189 H   0  0  0  0  0  0  0  0  0  0  0  0
    6.9271   -3.2003   29.4231 H   0  0  0  0  0  0  0  0  0  0  0  0
    4.3509   -1.4721   32.2405 H   0  0  0  0  0  0  0  0  0  0  0  0
    3.4877    1.9846   33.1274 H   0  0  0  0  0  0  0  0  0  0  0  0
    1.9978    2.5224   34.8372 H   0  0  0  0  0  0  0  0  0  0  0  0
    0.2567   -1.4094   36.6644 H   0  0  0  0  0  0  0  0  0  0  0  0
    0.6919   -3.8168   36.3296 H   0  0  0  0  0  0  0  0  0  0  0  0
    2.4288   -4.5525   34.7144 H   0  0  0  0  0  0  0  0  0  0  0  0
    3.6768   -2.9241   33.4087 H   0  0  0  0  0  0  0  0  0  0  0  0
   -1.3554   -0.6384   28.8451 H   0  0  0  0  0  0  0  0  0  0  0  0
   -0.5435   -2.2066   28.8447 H   0  0  0  0  0  0  0  0  0  0  0  0
  1  2  1  0
  2  3  2  0
  3  4  1  0
  4  5  1  0
  4  6  2  0
  6  7  1  0
  7  8  1  0
  8  9  1  0
  9 10  1  0
 10 11  1  0
 11 12  2  0
 11 13  2  0
 11 14  1  0
 14 15  1  0
 15 16  1  0
 16 17  1  0
 17 18  1  0
 18 19  1  0
 19 20  1  0
 20 21  1  0
 21 22  1  0
 21 23  1  0
 23 24  1  0
 24 25  1  0
 25 26  2  0
 26 27  1  0
 27 28  1  0
 28 29  2  0
 28 30  1  0
 30 31  1  0
 31 32  2  0
 32 33  1  0
 33 34  1  0
 34 35  2  0
 34 36  1  0
 36 37  2  0
 37 38  1  0
 38 39  2  0
 39 40  1  0
 40 41  2  0
 18 42  1  0
  7 43  2  0
 43  2  1  0
 42 14  1  0
 27 23  2  0
 41 31  1  0
 41 36  1  0
  1 44  1  0
  1 45  1  0
  1 46  1  0
  3 47  1  0
  5 48  1  0
  8 49  1  0
  8 50  1  0
  9 51  1  0
  9 52  1  0
 10 53  1  0
 15 54  1  0
 15 55  1  0
 16 56  1  0
 16 57  1  0
 18 58  1  0
 19 59  1  0
 20 60  1  0
 20 61  1  0
 21 62  1  0
 22 63  1  0
 22 64  1  0
 25 65  1  0
 30 66  1  0
 32 67  1  0
 33 68  1  0
 37 69  1  0
 38 70  1  0
 39 71  1  0
 40 72  1  0
 42 73  1  0
 42 74  1  0
M  END
>  <Energy>  (291) 
-101.70762134601264

>  <compound_id>  (291) 
337

>  <target_id>  (291) 
1

>  <reference_id>  (291) 
136

>  <inspiration_ids>  (291) 
[202, 136]

>  <energy_score>  (291) 
-99.64090836898461

>  <distance_score>  (291) 
1.5462299413282903

>  <path>  (291) 
/opt/xchem-fragalysis-2/maxwin/BulkDock/SCRATCH/505737/C337-P136/C337-P136.minimised.mol

>  <scratch_subdir>  (291) 
/opt/xchem-fragalysis-2/maxwin/BulkDock/SCRATCH/505737/C337-P136

>  <fragmenstein_runtime>  (291) 
61.92559242248535

>  <fragmenstein_outcome>  (291) 
too moved

>  <fragmenstein_mode>  (291) 
expansion

>  <fragmenstein_error>  (291) 


$$$$
C338-P202
     RDKit          3D

 77 81  0  0  0  0  0  0  0  0999 V2000
   -0.2968   -7.2539   35.6944 C   0  0  0  0  0  0  0  0  0  0  0  0
   -0.3408   -7.1849   34.2004 C   0  0  0  0  0  0  0  0  0  0  0  0
   -1.3553   -7.8095   33.5143 C   0  0  0  0  0  0  0  0  0  0  0  0
   -1.2703   -7.7808   32.1482 C   0  0  0  0  0  0  0  0  0  0  0  0
   -2.1453   -8.4684   31.3662 O   0  0  0  0  0  0  0  0  0  0  0  0
   -0.3490   -7.0986   31.4715 N   0  0  0  0  0  0  0  0  0  0  0  0
    0.5218   -6.4139   32.2274 C   0  0  0  0  0  0  0  0  0  0  0  0
    1.4124   -5.4441   31.5249 C   0  0  0  0  0  0  0  0  0  0  0  0
    0.6159   -4.2480   31.0225 C   0  0  0  0  0  0  0  0  0  0  0  0
    0.2072   -3.3454   32.1083 N   0  0  0  0  0  0  0  0  0  0  0  0
   -1.2448   -2.5429   32.0559 S   0  0  0  0  0  0  0  0  0  0  0  0
   -1.5170   -2.0488   33.3842 O   0  0  0  0  0  0  0  0  0  0  0  0
   -2.1920   -3.3863   31.3667 O   0  0  0  0  0  0  0  0  0  0  0  0
   -0.8885   -1.2081   31.0993 N   0  0  0  0  0  0  0  0  0  0  0  0
   -0.3079   -0.0306   31.8226 C   0  0  0  0  0  0  0  0  0  0  0  0
    0.3069    0.9659   30.8300 C   0  0  0  0  0  0  0  0  0  0  0  0
    1.3856    0.4093   30.0666 O   0  0  0  0  0  0  0  0  0  0  0  0
    1.2455   -1.0010   29.8511 C   0  0  0  0  0  0  0  0  0  0  0  0
    2.0746   -1.4070   28.7225 N   0  0  0  0  0  0  0  0  0  0  0  0
    3.5150   -1.2842   29.0097 C   0  0  0  0  0  0  0  0  0  0  0  0
    4.2339   -2.5632   29.4809 C   0  0  0  0  0  0  0  0  0  0  0  0
    4.2777   -2.7564   30.9595 C   0  0  0  0  0  0  0  0  0  0  0  0
    3.2897   -2.7802   31.8258 N   0  0  0  0  0  0  0  0  0  0  0  0
    3.8798   -3.0862   33.0469 C   0  0  0  0  0  0  0  0  0  0  0  0
    3.0771   -3.1899   34.2831 C   0  0  0  0  0  0  0  0  0  0  0  0
    2.1592   -2.4259   34.3814 O   0  0  0  0  0  0  0  0  0  0  0  0
    3.4929   -4.2823   35.1361 N   0  0  0  0  0  0  0  0  0  0  0  0
    3.0130   -4.7126   36.3599 C   0  0  0  0  0  0  0  0  0  0  0  0
    3.8472   -5.4626   37.1088 C   0  0  0  0  0  0  0  0  0  0  0  0
    3.5595   -5.8703   38.3829 N   0  0  0  0  0  0  0  0  0  0  0  0
    2.4186   -5.5268   39.0632 C   0  0  0  0  0  0  0  0  0  0  0  0
    2.2581   -5.8313   40.2385 O   0  0  0  0  0  0  0  0  0  0  0  0
    1.3954   -4.7933   38.2785 C   0  0  0  0  0  0  0  0  0  0  0  0
    0.1507   -4.5492   38.8834 C   0  0  0  0  0  0  0  0  0  0  0  0
   -0.8816   -3.9845   38.1442 C   0  0  0  0  0  0  0  0  0  0  0  0
   -0.6781   -3.7055   36.7990 C   0  0  0  0  0  0  0  0  0  0  0  0
    0.5672   -3.9556   36.2031 C   0  0  0  0  0  0  0  0  0  0  0  0
    1.6595   -4.4442   36.9335 C   0  0  0  0  0  0  0  0  0  0  0  0
    5.2345   -3.2536   32.8456 C   0  0  0  0  0  0  0  0  0  0  0  0
    6.3792   -3.5678   33.7234 C   0  0  0  0  0  0  0  0  0  0  0  0
    6.2336   -4.9305   34.2460 N   0  0  0  0  0  0  0  0  0  0  0  0
    5.4955   -3.0614   31.5116 O   0  0  0  0  0  0  0  0  0  0  0  0
   -0.2663   -1.4017   29.7476 C   0  0  0  0  0  0  0  0  0  0  0  0
    0.6209   -6.4910   33.5677 N   0  0  0  0  0  0  0  0  0  0  0  0
   -0.5566   -8.2568   36.0404 H   0  0  0  0  0  0  0  0  0  0  0  0
   -1.0079   -6.5451   36.1234 H   0  0  0  0  0  0  0  0  0  0  0  0
    0.7090   -7.0376   36.0616 H   0  0  0  0  0  0  0  0  0  0  0  0
   -2.1373   -8.3355   34.0373 H   0  0  0  0  0  0  0  0  0  0  0  0
   -2.8078   -8.9138   31.9310 H   0  0  0  0  0  0  0  0  0  0  0  0
    1.8713   -5.9478   30.6678 H   0  0  0  0  0  0  0  0  0  0  0  0
    2.2223   -5.1455   32.1927 H   0  0  0  0  0  0  0  0  0  0  0  0
   -0.2467   -4.5907   30.4424 H   0  0  0  0  0  0  0  0  0  0  0  0
    1.2624   -3.7009   30.3357 H   0  0  0  0  0  0  0  0  0  0  0  0
    0.9243   -2.8968   32.6870 H   0  0  0  0  0  0  0  0  0  0  0  0
    0.4691   -0.3699   32.5175 H   0  0  0  0  0  0  0  0  0  0  0  0
   -1.1045    0.4648   32.3873 H   0  0  0  0  0  0  0  0  0  0  0  0
   -0.4489    1.3294   30.1250 H   0  0  0  0  0  0  0  0  0  0  0  0
    0.6986    1.8369   31.3648 H   0  0  0  0  0  0  0  0  0  0  0  0
    1.6409   -1.4774   30.7472 H   0  0  0  0  0  0  0  0  0  0  0  0
    1.8278   -2.3407   28.4132 H   0  0  0  0  0  0  0  0  0  0  0  0
    3.9653   -1.0190   28.0444 H   0  0  0  0  0  0  0  0  0  0  0  0
    3.7374   -0.4395   29.6734 H   0  0  0  0  0  0  0  0  0  0  0  0
    5.2667   -2.5236   29.1106 H   0  0  0  0  0  0  0  0  0  0  0  0
    3.7809   -3.4483   29.0182 H   0  0  0  0  0  0  0  0  0  0  0  0
    4.3725   -4.6642   34.7842 H   0  0  0  0  0  0  0  0  0  0  0  0
    4.8376   -5.7426   36.7634 H   0  0  0  0  0  0  0  0  0  0  0  0
    4.2417   -6.3872   38.9257 H   0  0  0  0  0  0  0  0  0  0  0  0
   -0.0189   -4.8225   39.9230 H   0  0  0  0  0  0  0  0  0  0  0  0
   -1.8484   -3.8006   38.6058 H   0  0  0  0  0  0  0  0  0  0  0  0
   -1.4900   -3.3138   36.1864 H   0  0  0  0  0  0  0  0  0  0  0  0
    0.6196   -3.8027   35.1316 H   0  0  0  0  0  0  0  0  0  0  0  0
    7.3281   -3.4796   33.1838 H   0  0  0  0  0  0  0  0  0  0  0  0
    6.4067   -2.8621   34.5603 H   0  0  0  0  0  0  0  0  0  0  0  0
    7.0212   -5.1007   34.8783 H   0  0  0  0  0  0  0  0  0  0  0  0
    6.3967   -5.5775   33.4691 H   0  0  0  0  0  0  0  0  0  0  0  0
   -0.7923   -0.7572   29.0328 H   0  0  0  0  0  0  0  0  0  0  0  0
   -0.4007   -2.4274   29.3972 H   0  0  0  0  0  0  0  0  0  0  0  0
  1  2  1  0
  2  3  2  0
  3  4  1  0
  4  5  1  0
  4  6  2  0
  6  7  1  0
  7  8  1  0
  8  9  1  0
  9 10  1  0
 10 11  1  0
 11 12  2  0
 11 13  2  0
 11 14  1  0
 14 15  1  0
 15 16  1  0
 16 17  1  0
 17 18  1  0
 18 19  1  0
 19 20  1  0
 20 21  1  0
 21 22  1  0
 22 23  2  0
 23 24  1  0
 24 25  1  0
 25 26  2  0
 25 27  1  0
 27 28  1  0
 28 29  2  0
 29 30  1  0
 30 31  1  0
 31 32  2  0
 31 33  1  0
 33 34  2  0
 34 35  1  0
 35 36  2  0
 36 37  1  0
 37 38  2  0
 24 39  2  0
 39 40  1  0
 40 41  1  0
 39 42  1  0
 18 43  1  0
  7 44  2  0
 44  2  1  0
 43 14  1  0
 42 22  1  0
 38 28  1  0
 38 33  1  0
  1 45  1  0
  1 46  1  0
  1 47  1  0
  3 48  1  0
  5 49  1  0
  8 50  1  0
  8 51  1  0
  9 52  1  0
  9 53  1  0
 10 54  1  0
 15 55  1  0
 15 56  1  0
 16 57  1  0
 16 58  1  0
 18 59  1  0
 19 60  1  0
 20 61  1  0
 20 62  1  0
 21 63  1  0
 21 64  1  0
 27 65  1  0
 29 66  1  0
 30 67  1  0
 34 68  1  0
 35 69  1  0
 36 70  1  0
 37 71  1  0
 40 72  1  0
 40 73  1  0
 41 74  1  0
 41 75  1  0
 43 76  1  0
 43 77  1  0
M  END
>  <Energy>  (292) 
-105.91546466415998

>  <compound_id>  (292) 
338

>  <target_id>  (292) 
1

>  <reference_id>  (292) 
202

>  <inspiration_ids>  (292) 
[202, 140]

>  <energy_score>  (292) 
-453.58233328566837

>  <distance_score>  (292) 
2.022111473005716

>  <path>  (292) 
/opt/xchem-fragalysis-2/maxwin/BulkDock/SCRATCH/505737/C338-P202/C338-P202.minimised.mol

>  <scratch_subdir>  (292) 
/opt/xchem-fragalysis-2/maxwin/BulkDock/SCRATCH/505737/C338-P202

>  <fragmenstein_runtime>  (292) 
17.56668782234192

>  <fragmenstein_outcome>  (292) 
too moved

>  <fragmenstein_mode>  (292) 
expansion

>  <fragmenstein_error>  (292) 


$$$$
C338-P140
     RDKit          3D

 77 81  0  0  0  0  0  0  0  0999 V2000
   -0.1069   -6.5497   35.4812 C   0  0  0  0  0  0  0  0  0  0  0  0
   -0.2075   -6.7275   33.9968 C   0  0  0  0  0  0  0  0  0  0  0  0
   -1.2410   -7.4496   33.4467 C   0  0  0  0  0  0  0  0  0  0  0  0
   -1.2209   -7.5880   32.0827 C   0  0  0  0  0  0  0  0  0  0  0  0
   -2.1481   -8.3212   31.4166 O   0  0  0  0  0  0  0  0  0  0  0  0
   -0.3265   -7.0121   31.2821 N   0  0  0  0  0  0  0  0  0  0  0  0
    0.5954   -6.2613   31.8950 C   0  0  0  0  0  0  0  0  0  0  0  0
    1.3810   -5.3200   31.0358 C   0  0  0  0  0  0  0  0  0  0  0  0
    0.4774   -4.1515   30.6731 C   0  0  0  0  0  0  0  0  0  0  0  0
    0.1643   -3.3338   31.8703 N   0  0  0  0  0  0  0  0  0  0  0  0
   -1.1032   -2.2550   31.7013 S   0  0  0  0  0  0  0  0  0  0  0  0
   -1.1534   -1.4242   32.8775 O   0  0  0  0  0  0  0  0  0  0  0  0
   -2.2589   -2.9897   31.2478 O   0  0  0  0  0  0  0  0  0  0  0  0
   -0.4601   -1.3455   30.4323 N   0  0  0  0  0  0  0  0  0  0  0  0
   -1.4207   -0.4040   29.7780 C   0  0  0  0  0  0  0  0  0  0  0  0
   -0.6829    0.7993   29.1653 C   0  0  0  0  0  0  0  0  0  0  0  0
    0.0891    1.5638   30.1125 O   0  0  0  0  0  0  0  0  0  0  0  0
    0.5247    0.7989   31.2454 C   0  0  0  0  0  0  0  0  0  0  0  0
    1.6630    1.4774   31.8652 N   0  0  0  0  0  0  0  0  0  0  0  0
    2.0522    0.8713   33.1487 C   0  0  0  0  0  0  0  0  0  0  0  0
    3.3227    0.0093   33.0891 C   0  0  0  0  0  0  0  0  0  0  0  0
    3.4058   -0.9024   34.2632 C   0  0  0  0  0  0  0  0  0  0  0  0
    2.6747   -1.9631   34.5349 N   0  0  0  0  0  0  0  0  0  0  0  0
    3.1626   -2.4267   35.7516 C   0  0  0  0  0  0  0  0  0  0  0  0
    2.5807   -3.5916   36.4644 C   0  0  0  0  0  0  0  0  0  0  0  0
    1.4055   -3.7847   36.3396 O   0  0  0  0  0  0  0  0  0  0  0  0
    3.5807   -4.3138   37.2202 N   0  0  0  0  0  0  0  0  0  0  0  0
    3.4981   -5.4816   37.9426 C   0  0  0  0  0  0  0  0  0  0  0  0
    4.6224   -6.2147   38.0444 C   0  0  0  0  0  0  0  0  0  0  0  0
    4.6550   -7.4572   38.6125 N   0  0  0  0  0  0  0  0  0  0  0  0
    3.5548   -8.1093   39.1108 C   0  0  0  0  0  0  0  0  0  0  0  0
    3.6367   -9.2661   39.5042 O   0  0  0  0  0  0  0  0  0  0  0  0
    2.3045   -7.3112   39.1662 C   0  0  0  0  0  0  0  0  0  0  0  0
    1.2091   -7.8486   39.8536 C   0  0  0  0  0  0  0  0  0  0  0  0
    0.0773   -7.0711   40.0610 C   0  0  0  0  0  0  0  0  0  0  0  0
    0.0441   -5.7643   39.5856 C   0  0  0  0  0  0  0  0  0  0  0  0
    1.1403   -5.2345   38.8911 C   0  0  0  0  0  0  0  0  0  0  0  0
    2.2836   -6.0032   38.6290 C   0  0  0  0  0  0  0  0  0  0  0  0
    4.2056   -1.6032   36.1424 C   0  0  0  0  0  0  0  0  0  0  0  0
    5.1108   -1.5523   37.3091 C   0  0  0  0  0  0  0  0  0  0  0  0
    6.0089   -2.7117   37.2766 N   0  0  0  0  0  0  0  0  0  0  0  0
    4.3722   -0.6341   35.1900 O   0  0  0  0  0  0  0  0  0  0  0  0
    0.8151   -0.6520   30.7991 C   0  0  0  0  0  0  0  0  0  0  0  0
    0.7180   -6.1220   33.2292 N   0  0  0  0  0  0  0  0  0  0  0  0
   -0.4110   -7.4618   36.0045 H   0  0  0  0  0  0  0  0  0  0  0  0
   -0.7455   -5.7227   35.8049 H   0  0  0  0  0  0  0  0  0  0  0  0
    0.9275   -6.3389   35.7652 H   0  0  0  0  0  0  0  0  0  0  0  0
   -1.9946   -7.9061   34.0683 H   0  0  0  0  0  0  0  0  0  0  0  0
   -2.7793   -8.7209   32.0443 H   0  0  0  0  0  0  0  0  0  0  0  0
    1.6971   -5.8325   30.1218 H   0  0  0  0  0  0  0  0  0  0  0  0
    2.2797   -4.9807   31.5628 H   0  0  0  0  0  0  0  0  0  0  0  0
   -0.4420   -4.5148   30.2036 H   0  0  0  0  0  0  0  0  0  0  0  0
    1.0012   -3.5236   29.9445 H   0  0  0  0  0  0  0  0  0  0  0  0
    0.0322   -3.8741   32.7338 H   0  0  0  0  0  0  0  0  0  0  0  0
   -2.1461   -0.0391   30.5142 H   0  0  0  0  0  0  0  0  0  0  0  0
   -1.9508   -0.9460   28.9896 H   0  0  0  0  0  0  0  0  0  0  0  0
    0.0001    0.4660   28.3749 H   0  0  0  0  0  0  0  0  0  0  0  0
   -1.4014    1.4830   28.7017 H   0  0  0  0  0  0  0  0  0  0  0  0
   -0.3086    0.8281   31.9570 H   0  0  0  0  0  0  0  0  0  0  0  0
    2.4306    1.5327   31.2024 H   0  0  0  0  0  0  0  0  0  0  0  0
    2.2398    1.6939   33.8506 H   0  0  0  0  0  0  0  0  0  0  0  0
    1.2149    0.3118   33.5861 H   0  0  0  0  0  0  0  0  0  0  0  0
    4.2057    0.6578   33.0423 H   0  0  0  0  0  0  0  0  0  0  0  0
    3.3450   -0.6054   32.1833 H   0  0  0  0  0  0  0  0  0  0  0  0
    4.5001   -3.9122   37.0261 H   0  0  0  0  0  0  0  0  0  0  0  0
    5.5643   -5.8910   37.6107 H   0  0  0  0  0  0  0  0  0  0  0  0
    5.5107   -7.9998   38.6122 H   0  0  0  0  0  0  0  0  0  0  0  0
    1.2487   -8.8633   40.2484 H   0  0  0  0  0  0  0  0  0  0  0  0
   -0.7617   -7.4816   40.6161 H   0  0  0  0  0  0  0  0  0  0  0  0
   -0.8308   -5.1425   39.7664 H   0  0  0  0  0  0  0  0  0  0  0  0
    1.0789   -4.1927   38.5944 H   0  0  0  0  0  0  0  0  0  0  0  0
    5.7013   -0.6300   37.3116 H   0  0  0  0  0  0  0  0  0  0  0  0
    4.5256   -1.5724   38.2345 H   0  0  0  0  0  0  0  0  0  0  0  0
    6.6072   -2.6626   38.1054 H   0  0  0  0  0  0  0  0  0  0  0  0
    6.6527   -2.5801   36.4907 H   0  0  0  0  0  0  0  0  0  0  0  0
    1.4722   -0.6696   29.9203 H   0  0  0  0  0  0  0  0  0  0  0  0
    1.3356   -1.2094   31.5787 H   0  0  0  0  0  0  0  0  0  0  0  0
  1  2  1  0
  2  3  2  0
  3  4  1  0
  4  5  1  0
  4  6  2  0
  6  7  1  0
  7  8  1  0
  8  9  1  0
  9 10  1  0
 10 11  1  0
 11 12  2  0
 11 13  2  0
 11 14  1  0
 14 15  1  0
 15 16  1  0
 16 17  1  0
 17 18  1  0
 18 19  1  0
 19 20  1  0
 20 21  1  0
 21 22  1  0
 22 23  2  0
 23 24  1  0
 24 25  1  0
 25 26  2  0
 25 27  1  0
 27 28  1  0
 28 29  2  0
 29 30  1  0
 30 31  1  0
 31 32  2  0
 31 33  1  0
 33 34  2  0
 34 35  1  0
 35 36  2  0
 36 37  1  0
 37 38  2  0
 24 39  2  0
 39 40  1  0
 40 41  1  0
 39 42  1  0
 18 43  1  0
  7 44  2  0
 44  2  1  0
 43 14  1  0
 42 22  1  0
 38 28  1  0
 38 33  1  0
  1 45  1  0
  1 46  1  0
  1 47  1  0
  3 48  1  0
  5 49  1  0
  8 50  1  0
  8 51  1  0
  9 52  1  0
  9 53  1  0
 10 54  1  0
 15 55  1  0
 15 56  1  0
 16 57  1  0
 16 58  1  0
 18 59  1  0
 19 60  1  0
 20 61  1  0
 20 62  1  0
 21 63  1  0
 21 64  1  0
 27 65  1  0
 29 66  1  0
 30 67  1  0
 34 68  1  0
 35 69  1  0
 36 70  1  0
 37 71  1  0
 40 72  1  0
 40 73  1  0
 41 74  1  0
 41 75  1  0
 43 76  1  0
 43 77  1  0
M  END
>  <Energy>  (293) 
-110.15622505418301

>  <compound_id>  (293) 
338

>  <target_id>  (293) 
1

>  <reference_id>  (293) 
140

>  <inspiration_ids>  (293) 
[202, 140]

>  <energy_score>  (293) 
-457.8230936756919

>  <distance_score>  (293) 
1.6990644475919559

>  <path>  (293) 
/opt/xchem-fragalysis-2/maxwin/BulkDock/SCRATCH/505737/C338-P140/C338-P140.minimised.mol

>  <scratch_subdir>  (293) 
/opt/xchem-fragalysis-2/maxwin/BulkDock/SCRATCH/505737/C338-P140

>  <fragmenstein_runtime>  (293) 
20.16926622390747

>  <fragmenstein_outcome>  (293) 
too moved

>  <fragmenstein_mode>  (293) 
expansion

>  <fragmenstein_error>  (293) 


$$$$
C342-P202
     RDKit          3D

 66 69  0  0  0  0  0  0  0  0999 V2000
   -0.8330   -3.4856   35.8004 N   0  0  0  0  0  0  0  0  0  0  0  0
   -0.2228   -4.6799   36.2928 C   0  0  0  0  0  0  0  0  0  0  0  0
   -0.6021   -4.6856   37.6487 O   0  0  0  0  0  0  0  0  0  0  0  0
   -0.9910   -5.7158   35.6758 N   0  0  0  0  0  0  0  0  0  0  0  0
   -0.4645   -6.4376   34.5223 C   0  0  0  0  0  0  0  0  0  0  0  0
   -0.7369   -5.8493   33.1494 C   0  0  0  0  0  0  0  0  0  0  0  0
   -1.1462   -6.9239   32.2368 N   0  0  0  0  0  0  0  0  0  0  0  0
   -0.9997   -8.1257   32.9869 N   0  0  0  0  0  0  0  0  0  0  0  0
   -1.1767   -7.7605   34.3925 C   0  0  0  0  0  0  0  0  0  0  0  0
    1.3422   -4.6982   36.2882 C   0  0  0  0  0  0  0  0  0  0  0  0
    1.9035   -5.8046   37.2126 C   0  0  0  0  0  0  0  0  0  0  0  0
    3.2104   -6.2439   36.5541 C   0  0  0  0  0  0  0  0  0  0  0  0
    3.0645   -7.5817   36.0426 O   0  0  0  0  0  0  0  0  0  0  0  0
    3.3923   -5.2353   35.4839 N   0  0  0  0  0  0  0  0  0  0  0  0
    4.2334   -5.7470   34.4445 N   0  0  0  0  0  0  0  0  0  0  0  0
    4.1594   -4.8699   33.2672 C   0  0  0  0  0  0  0  0  0  0  0  0
    2.6944   -4.7712   32.7768 C   0  0  0  0  0  0  0  0  0  0  0  0
    2.5944   -4.1151   31.3845 C   0  0  0  0  0  0  0  0  0  0  0  0
    1.1846   -3.8595   30.8224 C   0  0  0  0  0  0  0  0  0  0  0  0
    0.5708   -2.8174   31.6294 N   0  0  0  0  0  0  0  0  0  0  0  0
   -1.0558   -2.5364   31.7079 S   0  0  0  0  0  0  0  0  0  0  0  0
   -1.2671   -1.9392   33.0050 O   0  0  0  0  0  0  0  0  0  0  0  0
   -1.7869   -3.7062   31.2906 O   0  0  0  0  0  0  0  0  0  0  0  0
   -1.2162   -1.3534   30.5649 N   0  0  0  0  0  0  0  0  0  0  0  0
   -0.7947    0.0223   30.9198 C   0  0  0  0  0  0  0  0  0  0  0  0
   -0.3842    0.8233   29.6902 C   0  0  0  0  0  0  0  0  0  0  0  0
    0.6094    0.0843   28.9858 O   0  0  0  0  0  0  0  0  0  0  0  0
    0.0635   -1.1111   28.4186 C   0  0  0  0  0  0  0  0  0  0  0  0
   -1.1658   -1.6934   29.1267 C   0  0  0  0  0  0  0  0  0  0  0  0
    1.9873   -4.0602   33.9525 C   0  0  0  0  0  0  0  0  0  0  0  0
    2.0596   -5.0046   35.0510 N   0  0  0  0  0  0  0  0  0  0  0  0
   -0.6976   -3.3805   34.7994 H   0  0  0  0  0  0  0  0  0  0  0  0
   -0.3682   -2.6881   36.2266 H   0  0  0  0  0  0  0  0  0  0  0  0
   -1.5590   -4.5467   37.5906 H   0  0  0  0  0  0  0  0  0  0  0  0
   -1.8587   -5.2470   35.3993 H   0  0  0  0  0  0  0  0  0  0  0  0
    0.5854   -6.7133   34.6315 H   0  0  0  0  0  0  0  0  0  0  0  0
   -1.5016   -5.0810   33.1979 H   0  0  0  0  0  0  0  0  0  0  0  0
    0.1511   -5.4023   32.7401 H   0  0  0  0  0  0  0  0  0  0  0  0
   -2.1219   -6.7502   31.9799 H   0  0  0  0  0  0  0  0  0  0  0  0
   -1.6708   -8.8560   32.7345 H   0  0  0  0  0  0  0  0  0  0  0  0
   -2.2427   -7.6950   34.6344 H   0  0  0  0  0  0  0  0  0  0  0  0
   -0.7149   -8.4647   35.0866 H   0  0  0  0  0  0  0  0  0  0  0  0
    1.6924   -3.7338   36.6910 H   0  0  0  0  0  0  0  0  0  0  0  0
    2.0967   -5.3801   38.2047 H   0  0  0  0  0  0  0  0  0  0  0  0
    1.2102   -6.6471   37.3182 H   0  0  0  0  0  0  0  0  0  0  0  0
    4.0519   -6.2336   37.2550 H   0  0  0  0  0  0  0  0  0  0  0  0
    2.8740   -8.1238   36.8278 H   0  0  0  0  0  0  0  0  0  0  0  0
    3.8797   -6.6783   34.2220 H   0  0  0  0  0  0  0  0  0  0  0  0
    4.8284   -5.2432   32.4925 H   0  0  0  0  0  0  0  0  0  0  0  0
    4.5556   -3.8756   33.5176 H   0  0  0  0  0  0  0  0  0  0  0  0
    2.2970   -5.7898   32.6571 H   0  0  0  0  0  0  0  0  0  0  0  0
    3.1257   -4.7546   30.6680 H   0  0  0  0  0  0  0  0  0  0  0  0
    3.1446   -3.1645   31.4052 H   0  0  0  0  0  0  0  0  0  0  0  0
    0.6002   -4.7797   30.7974 H   0  0  0  0  0  0  0  0  0  0  0  0
    1.2838   -3.5044   29.7941 H   0  0  0  0  0  0  0  0  0  0  0  0
    1.1231   -1.9802   31.8030 H   0  0  0  0  0  0  0  0  0  0  0  0
    0.0644   -0.0200   31.5987 H   0  0  0  0  0  0  0  0  0  0  0  0
   -1.6166    0.5233   31.4393 H   0  0  0  0  0  0  0  0  0  0  0  0
   -1.2322    1.0413   29.0300 H   0  0  0  0  0  0  0  0  0  0  0  0
    0.0557    1.7780   29.9948 H   0  0  0  0  0  0  0  0  0  0  0  0
    0.8733   -1.8433   28.3773 H   0  0  0  0  0  0  0  0  0  0  0  0
   -0.2138   -0.8695   27.3941 H   0  0  0  0  0  0  0  0  0  0  0  0
   -2.0617   -1.2664   28.6629 H   0  0  0  0  0  0  0  0  0  0  0  0
   -1.2253   -2.7712   28.9478 H   0  0  0  0  0  0  0  0  0  0  0  0
    0.9527   -3.8415   33.7265 H   0  0  0  0  0  0  0  0  0  0  0  0
    2.4618   -3.0998   34.1944 H   0  0  0  0  0  0  0  0  0  0  0  0
  1  2  1  0
  2  3  1  0
  2  4  1  0
  4  5  1  0
  5  6  1  0
  6  7  1  0
  7  8  1  0
  8  9  1  0
  2 10  1  0
 10 11  1  0
 11 12  1  0
 12 13  1  0
 12 14  1  0
 14 15  1  0
 15 16  1  0
 16 17  1  0
 17 18  1  0
 18 19  1  0
 19 20  1  0
 20 21  1  0
 21 22  2  0
 21 23  2  0
 21 24  1  0
 24 25  1  0
 25 26  1  0
 26 27  1  0
 27 28  1  0
 28 29  1  0
 17 30  1  0
 30 31  1  0
  9  5  1  0
 31 10  1  0
 31 14  1  0
 29 24  1  0
  1 32  1  0
  1 33  1  0
  3 34  1  0
  4 35  1  0
  5 36  1  0
  6 37  1  0
  6 38  1  0
  7 39  1  0
  8 40  1  0
  9 41  1  0
  9 42  1  0
 10 43  1  0
 11 44  1  0
 11 45  1  0
 12 46  1  0
 13 47  1  0
 15 48  1  0
 16 49  1  0
 16 50  1  0
 17 51  1  0
 18 52  1  0
 18 53  1  0
 19 54  1  0
 19 55  1  0
 20 56  1  0
 25 57  1  0
 25 58  1  0
 26 59  1  0
 26 60  1  0
 28 61  1  0
 28 62  1  0
 29 63  1  0
 29 64  1  0
 30 65  1  0
 30 66  1  0
M  END
>  <Energy>  (294) 
-138.96493021931775

>  <compound_id>  (294) 
342

>  <target_id>  (294) 
1

>  <reference_id>  (294) 
202

>  <inspiration_ids>  (294) 
[202, 145]

>  <energy_score>  (294) 
-90.9225424714014

>  <distance_score>  (294) 
1.855254430532285

>  <path>  (294) 
/opt/xchem-fragalysis-2/maxwin/BulkDock/SCRATCH/505737/C342-P202/C342-P202.minimised.mol

>  <scratch_subdir>  (294) 
/opt/xchem-fragalysis-2/maxwin/BulkDock/SCRATCH/505737/C342-P202

>  <fragmenstein_runtime>  (294) 
6.355138301849365

>  <fragmenstein_outcome>  (294) 
too moved

>  <fragmenstein_mode>  (294) 
expansion

>  <fragmenstein_error>  (294) 


$$$$
C342-P145
     RDKit          3D

 66 69  0  0  0  0  0  0  0  0999 V2000
   -0.9271   -4.4136   35.8609 N   0  0  0  0  0  0  0  0  0  0  0  0
    0.0159   -5.4816   35.8004 C   0  0  0  0  0  0  0  0  0  0  0  0
   -0.5510   -6.5430   36.5040 O   0  0  0  0  0  0  0  0  0  0  0  0
    0.2723   -5.8993   34.4569 N   0  0  0  0  0  0  0  0  0  0  0  0
   -0.7614   -6.3509   33.5604 C   0  0  0  0  0  0  0  0  0  0  0  0
   -0.2691   -6.4906   32.1276 C   0  0  0  0  0  0  0  0  0  0  0  0
   -1.0890   -7.5196   31.4798 N   0  0  0  0  0  0  0  0  0  0  0  0
   -1.8416   -8.1570   32.5284 N   0  0  0  0  0  0  0  0  0  0  0  0
   -1.3064   -7.7314   33.8197 C   0  0  0  0  0  0  0  0  0  0  0  0
    1.3811   -5.0036   36.4634 C   0  0  0  0  0  0  0  0  0  0  0  0
    2.1441   -6.1872   37.1070 C   0  0  0  0  0  0  0  0  0  0  0  0
    3.5514   -6.1210   36.5436 C   0  0  0  0  0  0  0  0  0  0  0  0
    4.0767   -7.4256   36.3441 O   0  0  0  0  0  0  0  0  0  0  0  0
    3.3172   -5.4340   35.2801 N   0  0  0  0  0  0  0  0  0  0  0  0
    4.5117   -4.9191   34.6769 N   0  0  0  0  0  0  0  0  0  0  0  0
    4.1543   -4.3378   33.3603 C   0  0  0  0  0  0  0  0  0  0  0  0
    2.6209   -4.3700   33.0983 C   0  0  0  0  0  0  0  0  0  0  0  0
    2.2284   -3.9964   31.6538 C   0  0  0  0  0  0  0  0  0  0  0  0
    1.3713   -2.8202   31.2718 C   0  0  0  0  0  0  0  0  0  0  0  0
    0.3485   -2.5224   32.2407 N   0  0  0  0  0  0  0  0  0  0  0  0
   -1.2454   -2.3322   31.8546 S   0  0  0  0  0  0  0  0  0  0  0  0
   -1.7939   -1.6649   33.0096 O   0  0  0  0  0  0  0  0  0  0  0  0
   -1.7715   -3.5866   31.3771 O   0  0  0  0  0  0  0  0  0  0  0  0
   -1.1769   -1.2339   30.6137 N   0  0  0  0  0  0  0  0  0  0  0  0
   -0.6437    0.1201   30.8802 C   0  0  0  0  0  0  0  0  0  0  0  0
   -0.6512    0.9549   29.5992 C   0  0  0  0  0  0  0  0  0  0  0  0
    0.1801    0.4012   28.5796 O   0  0  0  0  0  0  0  0  0  0  0  0
    0.1314   -1.0264   28.5044 C   0  0  0  0  0  0  0  0  0  0  0  0
   -1.0723   -1.6739   29.1954 C   0  0  0  0  0  0  0  0  0  0  0  0
    1.9892   -3.6997   34.3348 C   0  0  0  0  0  0  0  0  0  0  0  0
    2.4181   -4.3629   35.5948 N   0  0  0  0  0  0  0  0  0  0  0  0
   -1.6508   -4.5512   35.1552 H   0  0  0  0  0  0  0  0  0  0  0  0
   -0.4883   -3.5449   35.5729 H   0  0  0  0  0  0  0  0  0  0  0  0
   -1.0460   -6.0863   37.2063 H   0  0  0  0  0  0  0  0  0  0  0  0
    1.0216   -6.5846   34.5110 H   0  0  0  0  0  0  0  0  0  0  0  0
   -1.5555   -5.6251   33.5007 H   0  0  0  0  0  0  0  0  0  0  0  0
   -0.3369   -5.5516   31.5783 H   0  0  0  0  0  0  0  0  0  0  0  0
    0.7707   -6.7962   32.1004 H   0  0  0  0  0  0  0  0  0  0  0  0
   -1.7469   -7.0157   30.8817 H   0  0  0  0  0  0  0  0  0  0  0  0
   -1.8725   -9.1754   32.4559 H   0  0  0  0  0  0  0  0  0  0  0  0
   -2.0813   -7.7422   34.5901 H   0  0  0  0  0  0  0  0  0  0  0  0
   -0.5074   -8.3935   34.1458 H   0  0  0  0  0  0  0  0  0  0  0  0
    1.1464   -4.2936   37.2687 H   0  0  0  0  0  0  0  0  0  0  0  0
    2.1667   -6.0859   38.1983 H   0  0  0  0  0  0  0  0  0  0  0  0
    1.6975   -7.1617   36.8791 H   0  0  0  0  0  0  0  0  0  0  0  0
    4.2185   -5.5564   37.2088 H   0  0  0  0  0  0  0  0  0  0  0  0
    4.2127   -7.7939   37.2333 H   0  0  0  0  0  0  0  0  0  0  0  0
    5.1760   -5.6847   34.5373 H   0  0  0  0  0  0  0  0  0  0  0  0
    4.5116   -3.3011   33.3347 H   0  0  0  0  0  0  0  0  0  0  0  0
    4.7041   -4.8670   32.5768 H   0  0  0  0  0  0  0  0  0  0  0  0
    2.3289   -5.4218   33.1391 H   0  0  0  0  0  0  0  0  0  0  0  0
    1.6792   -4.8498   31.2454 H   0  0  0  0  0  0  0  0  0  0  0  0
    3.1368   -3.9335   31.0393 H   0  0  0  0  0  0  0  0  0  0  0  0
    0.9404   -3.0516   30.2970 H   0  0  0  0  0  0  0  0  0  0  0  0
    2.0007   -1.9313   31.1540 H   0  0  0  0  0  0  0  0  0  0  0  0
    0.6044   -1.8282   32.9424 H   0  0  0  0  0  0  0  0  0  0  0  0
    0.3835    0.0438   31.2510 H   0  0  0  0  0  0  0  0  0  0  0  0
   -1.2615    0.6152   31.6359 H   0  0  0  0  0  0  0  0  0  0  0  0
   -1.6666    1.0575   29.2002 H   0  0  0  0  0  0  0  0  0  0  0  0
   -0.2757    1.9609   29.8078 H   0  0  0  0  0  0  0  0  0  0  0  0
    1.0728   -1.3898   28.9222 H   0  0  0  0  0  0  0  0  0  0  0  0
    0.1380   -1.2956   27.4514 H   0  0  0  0  0  0  0  0  0  0  0  0
   -1.9823   -1.3549   28.6813 H   0  0  0  0  0  0  0  0  0  0  0  0
   -1.0121   -2.7620   29.1068 H   0  0  0  0  0  0  0  0  0  0  0  0
    0.9153   -3.6154   34.2433 H   0  0  0  0  0  0  0  0  0  0  0  0
    2.3464   -2.6626   34.3908 H   0  0  0  0  0  0  0  0  0  0  0  0
  1  2  1  0
  2  3  1  0
  2  4  1  0
  4  5  1  0
  5  6  1  0
  6  7  1  0
  7  8  1  0
  8  9  1  0
  2 10  1  0
 10 11  1  0
 11 12  1  0
 12 13  1  0
 12 14  1  0
 14 15  1  0
 15 16  1  0
 16 17  1  0
 17 18  1  0
 18 19  1  0
 19 20  1  0
 20 21  1  0
 21 22  2  0
 21 23  2  0
 21 24  1  0
 24 25  1  0
 25 26  1  0
 26 27  1  0
 27 28  1  0
 28 29  1  0
 17 30  1  0
 30 31  1  0
  9  5  1  0
 31 10  1  0
 31 14  1  0
 29 24  1  0
  1 32  1  0
  1 33  1  0
  3 34  1  0
  4 35  1  0
  5 36  1  0
  6 37  1  0
  6 38  1  0
  7 39  1  0
  8 40  1  0
  9 41  1  0
  9 42  1  0
 10 43  1  0
 11 44  1  0
 11 45  1  0
 12 46  1  0
 13 47  1  0
 15 48  1  0
 16 49  1  0
 16 50  1  0
 17 51  1  0
 18 52  1  0
 18 53  1  0
 19 54  1  0
 19 55  1  0
 20 56  1  0
 25 57  1  0
 25 58  1  0
 26 59  1  0
 26 60  1  0
 28 61  1  0
 28 62  1  0
 29 63  1  0
 29 64  1  0
 30 65  1  0
 30 66  1  0
M  END
>  <Energy>  (295) 
-117.2311915358169

>  <compound_id>  (295) 
342

>  <target_id>  (295) 
1

>  <reference_id>  (295) 
145

>  <inspiration_ids>  (295) 
[202, 145]

>  <energy_score>  (295) 
-69.18880378790088

>  <distance_score>  (295) 
1.9434592969518745

>  <path>  (295) 
/opt/xchem-fragalysis-2/maxwin/BulkDock/SCRATCH/505737/C342-P145/C342-P145.minimised.mol

>  <scratch_subdir>  (295) 
/opt/xchem-fragalysis-2/maxwin/BulkDock/SCRATCH/505737/C342-P145

>  <fragmenstein_runtime>  (295) 
7.711692571640015

>  <fragmenstein_outcome>  (295) 
too moved

>  <fragmenstein_mode>  (295) 
expansion

>  <fragmenstein_error>  (295) 


$$$$
C345-P202
     RDKit          3D

 52 55  0  0  0  0  0  0  0  0999 V2000
   -0.5257   -2.2562   32.9420 O   0  0  0  0  0  0  0  0  0  0  0  0
   -0.7698   -2.6587   31.5785 S   0  0  0  0  0  0  0  0  0  0  0  0
   -1.6504   -3.7476   31.2393 O   0  0  0  0  0  0  0  0  0  0  0  0
    0.7337   -2.8788   30.8726 N   0  0  0  0  0  0  0  0  0  0  0  0
    1.1840   -4.2275   30.5192 C   0  0  0  0  0  0  0  0  0  0  0  0
    1.0972   -5.1314   31.7175 C   0  0  0  0  0  0  0  0  0  0  0  0
    1.7969   -4.6865   32.9592 C   0  0  0  0  0  0  0  0  0  0  0  0
    1.4131   -5.2849   34.0921 C   0  0  0  0  0  0  0  0  0  0  0  0
    0.4969   -6.3209   34.0539 N   0  0  0  0  0  0  0  0  0  0  0  0
   -0.0850   -7.0807   35.0583 C   0  0  0  0  0  0  0  0  0  0  0  0
    0.1912   -7.0818   36.5493 C   0  0  0  0  0  0  0  0  0  0  0  0
    1.5330   -6.6695   37.1784 C   0  0  0  0  0  0  0  0  0  0  0  0
    2.7412   -7.5757   37.0594 C   0  0  0  0  0  0  0  0  0  0  0  0
    3.4446   -7.6842   35.8619 C   0  0  0  0  0  0  0  0  0  0  0  0
    4.5920   -8.4588   35.8219 C   0  0  0  0  0  0  0  0  0  0  0  0
    5.0850   -9.1356   36.8766 N   0  0  0  0  0  0  0  0  0  0  0  0
    4.4059   -9.0200   38.0347 C   0  0  0  0  0  0  0  0  0  0  0  0
    3.2494   -8.2629   38.1729 C   0  0  0  0  0  0  0  0  0  0  0  0
   -1.1261   -7.7779   34.4314 C   0  0  0  0  0  0  0  0  0  0  0  0
   -0.9861   -7.6424   33.0525 C   0  0  0  0  0  0  0  0  0  0  0  0
   -1.6720   -8.1756   32.0349 O   0  0  0  0  0  0  0  0  0  0  0  0
   -0.0026   -6.7374   32.8221 C   0  0  0  0  0  0  0  0  0  0  0  0
    0.3432   -6.1818   31.6287 N   0  0  0  0  0  0  0  0  0  0  0  0
   -1.2150   -1.3063   30.6949 N   0  0  0  0  0  0  0  0  0  0  0  0
   -0.5679   -0.0166   31.0670 C   0  0  0  0  0  0  0  0  0  0  0  0
   -0.2357    0.8317   29.8403 C   0  0  0  0  0  0  0  0  0  0  0  0
    0.5787    0.0748   28.9473 O   0  0  0  0  0  0  0  0  0  0  0  0
   -0.1073   -1.0800   28.4431 C   0  0  0  0  0  0  0  0  0  0  0  0
   -1.3590   -1.4979   29.2223 C   0  0  0  0  0  0  0  0  0  0  0  0
    1.4250   -2.2858   31.3268 H   0  0  0  0  0  0  0  0  0  0  0  0
    0.5798   -4.6149   29.6929 H   0  0  0  0  0  0  0  0  0  0  0  0
    2.2258   -4.1833   30.1862 H   0  0  0  0  0  0  0  0  0  0  0  0
    2.4890   -3.8570   32.9324 H   0  0  0  0  0  0  0  0  0  0  0  0
    1.7868   -4.9502   35.0440 H   0  0  0  0  0  0  0  0  0  0  0  0
   -0.0336   -8.0921   36.9126 H   0  0  0  0  0  0  0  0  0  0  0  0
   -0.5755   -6.4268   36.9871 H   0  0  0  0  0  0  0  0  0  0  0  0
    1.3305   -6.5663   38.2553 H   0  0  0  0  0  0  0  0  0  0  0  0
    1.8233   -5.6581   36.8873 H   0  0  0  0  0  0  0  0  0  0  0  0
    3.1358   -7.1594   34.9701 H   0  0  0  0  0  0  0  0  0  0  0  0
    5.1755   -8.5569   34.9114 H   0  0  0  0  0  0  0  0  0  0  0  0
    4.8175   -9.5693   38.8766 H   0  0  0  0  0  0  0  0  0  0  0  0
    2.7512   -8.2202   39.1372 H   0  0  0  0  0  0  0  0  0  0  0  0
   -1.8667   -8.3617   34.9558 H   0  0  0  0  0  0  0  0  0  0  0  0
   -1.3357   -7.7461   31.2256 H   0  0  0  0  0  0  0  0  0  0  0  0
    0.3659   -0.2039   31.6086 H   0  0  0  0  0  0  0  0  0  0  0  0
   -1.2406    0.5317   31.7340 H   0  0  0  0  0  0  0  0  0  0  0  0
    0.3311    1.7174   30.1443 H   0  0  0  0  0  0  0  0  0  0  0  0
   -1.1339    1.1802   29.3173 H   0  0  0  0  0  0  0  0  0  0  0  0
   -0.4044   -0.8445   27.4214 H   0  0  0  0  0  0  0  0  0  0  0  0
    0.6199   -1.8950   28.3951 H   0  0  0  0  0  0  0  0  0  0  0  0
   -2.1838   -0.8580   28.8994 H   0  0  0  0  0  0  0  0  0  0  0  0
   -1.6511   -2.5196   28.9633 H   0  0  0  0  0  0  0  0  0  0  0  0
  1  2  2  0
  2  3  2  0
  2  4  1  0
  4  5  1  0
  5  6  1  0
  6  7  1  0
  7  8  2  0
  8  9  1  0
  9 10  1  0
 10 11  1  0
 11 12  1  0
 12 13  1  0
 13 14  2  0
 14 15  1  0
 15 16  2  0
 16 17  1  0
 17 18  2  0
 10 19  2  0
 19 20  1  0
 20 21  1  0
 20 22  2  0
 22 23  1  0
  2 24  1  0
 24 25  1  0
 25 26  1  0
 26 27  1  0
 27 28  1  0
 28 29  1  0
 23  6  2  0
 29 24  1  0
 22  9  1  0
 18 13  1  0
  4 30  1  0
  5 31  1  0
  5 32  1  0
  7 33  1  0
  8 34  1  0
 11 35  1  0
 11 36  1  0
 12 37  1  0
 12 38  1  0
 14 39  1  0
 15 40  1  0
 17 41  1  0
 18 42  1  0
 19 43  1  0
 21 44  1  0
 25 45  1  0
 25 46  1  0
 26 47  1  0
 26 48  1  0
 28 49  1  0
 28 50  1  0
 29 51  1  0
 29 52  1  0
M  END
>  <Energy>  (296) 
-40.528806926204986

>  <compound_id>  (296) 
345

>  <target_id>  (296) 
1

>  <reference_id>  (296) 
202

>  <inspiration_ids>  (296) 
[202, 149]

>  <energy_score>  (296) 
-58.30031021493234

>  <distance_score>  (296) 
1.5268126461686025

>  <path>  (296) 
/opt/xchem-fragalysis-2/maxwin/BulkDock/SCRATCH/505737/C345-P202/C345-P202.minimised.mol

>  <scratch_subdir>  (296) 
/opt/xchem-fragalysis-2/maxwin/BulkDock/SCRATCH/505737/C345-P202

>  <fragmenstein_runtime>  (296) 
9.103243589401245

>  <fragmenstein_outcome>  (296) 
too moved

>  <fragmenstein_mode>  (296) 
expansion

>  <fragmenstein_error>  (296) 


$$$$
C345-P149
     RDKit          3D

 52 55  0  0  0  0  0  0  0  0999 V2000
   -0.5191   -2.1129   32.9927 O   0  0  0  0  0  0  0  0  0  0  0  0
   -0.7101   -2.5393   31.6278 S   0  0  0  0  0  0  0  0  0  0  0  0
   -1.5887   -3.6257   31.2790 O   0  0  0  0  0  0  0  0  0  0  0  0
    0.8202   -2.7921   30.9988 N   0  0  0  0  0  0  0  0  0  0  0  0
    1.2424   -4.1411   30.6249 C   0  0  0  0  0  0  0  0  0  0  0  0
    1.0779   -5.0719   31.7938 C   0  0  0  0  0  0  0  0  0  0  0  0
    1.7086   -4.6719   33.0875 C   0  0  0  0  0  0  0  0  0  0  0  0
    1.2842   -5.3264   34.1744 C   0  0  0  0  0  0  0  0  0  0  0  0
    0.3837   -6.3695   34.0478 N   0  0  0  0  0  0  0  0  0  0  0  0
   -0.2104   -7.2053   34.9801 C   0  0  0  0  0  0  0  0  0  0  0  0
    0.0391   -7.3153   36.4725 C   0  0  0  0  0  0  0  0  0  0  0  0
    1.3492   -6.8879   37.1655 C   0  0  0  0  0  0  0  0  0  0  0  0
    2.6203   -7.7007   37.0052 C   0  0  0  0  0  0  0  0  0  0  0  0
    3.2373   -7.8496   35.7658 C   0  0  0  0  0  0  0  0  0  0  0  0
    4.4390   -8.5343   35.6830 C   0  0  0  0  0  0  0  0  0  0  0  0
    5.0718   -9.0816   36.7397 N   0  0  0  0  0  0  0  0  0  0  0  0
    4.4761   -8.9274   37.9385 C   0  0  0  0  0  0  0  0  0  0  0  0
    3.2746   -8.2528   38.1187 C   0  0  0  0  0  0  0  0  0  0  0  0
   -1.2116   -7.8935   34.2761 C   0  0  0  0  0  0  0  0  0  0  0  0
   -1.0282   -7.6668   32.9167 C   0  0  0  0  0  0  0  0  0  0  0  0
   -1.6389   -8.1527   31.8294 O   0  0  0  0  0  0  0  0  0  0  0  0
   -0.0616   -6.7260   32.7800 C   0  0  0  0  0  0  0  0  0  0  0  0
    0.3287   -6.1156   31.6290 N   0  0  0  0  0  0  0  0  0  0  0  0
   -1.0938   -1.1993   30.6985 N   0  0  0  0  0  0  0  0  0  0  0  0
   -0.4197    0.0776   31.0651 C   0  0  0  0  0  0  0  0  0  0  0  0
   -0.0663    0.9104   29.8336 C   0  0  0  0  0  0  0  0  0  0  0  0
    0.7612    0.1423   28.9611 O   0  0  0  0  0  0  0  0  0  0  0  0
    0.1004   -1.0395   28.4866 C   0  0  0  0  0  0  0  0  0  0  0  0
   -1.1878   -1.4151   29.2240 C   0  0  0  0  0  0  0  0  0  0  0  0
    1.5061   -2.2305   31.4983 H   0  0  0  0  0  0  0  0  0  0  0  0
    0.6616   -4.4873   29.7641 H   0  0  0  0  0  0  0  0  0  0  0  0
    2.2981   -4.1219   30.3363 H   0  0  0  0  0  0  0  0  0  0  0  0
    2.3958   -3.8389   33.1297 H   0  0  0  0  0  0  0  0  0  0  0  0
    1.6184   -5.0394   35.1563 H   0  0  0  0  0  0  0  0  0  0  0  0
   -0.1515   -8.3585   36.7539 H   0  0  0  0  0  0  0  0  0  0  0  0
   -0.7632   -6.7278   36.9405 H   0  0  0  0  0  0  0  0  0  0  0  0
    1.1138   -6.8959   38.2406 H   0  0  0  0  0  0  0  0  0  0  0  0
    1.5817   -5.8391   36.9691 H   0  0  0  0  0  0  0  0  0  0  0  0
    2.8110   -7.4369   34.8652 H   0  0  0  0  0  0  0  0  0  0  0  0
    4.9438   -8.6673   34.7300 H   0  0  0  0  0  0  0  0  0  0  0  0
    4.9996   -9.3701   38.7808 H   0  0  0  0  0  0  0  0  0  0  0  0
    2.8546   -8.1658   39.1162 H   0  0  0  0  0  0  0  0  0  0  0  0
   -1.9452   -8.5362   34.7379 H   0  0  0  0  0  0  0  0  0  0  0  0
   -1.2400   -7.6717   31.0785 H   0  0  0  0  0  0  0  0  0  0  0  0
    0.5092   -0.1259   31.6093 H   0  0  0  0  0  0  0  0  0  0  0  0
   -1.0814    0.6402   31.7299 H   0  0  0  0  0  0  0  0  0  0  0  0
    0.4990    1.7977   30.1361 H   0  0  0  0  0  0  0  0  0  0  0  0
   -0.9540    1.2568   29.2916 H   0  0  0  0  0  0  0  0  0  0  0  0
   -0.1469   -0.8549   27.4427 H   0  0  0  0  0  0  0  0  0  0  0  0
    0.8286   -1.8545   28.5116 H   0  0  0  0  0  0  0  0  0  0  0  0
   -1.9799   -0.7566   28.8548 H   0  0  0  0  0  0  0  0  0  0  0  0
   -1.4940   -2.4345   28.9755 H   0  0  0  0  0  0  0  0  0  0  0  0
  1  2  2  0
  2  3  2  0
  2  4  1  0
  4  5  1  0
  5  6  1  0
  6  7  1  0
  7  8  2  0
  8  9  1  0
  9 10  1  0
 10 11  1  0
 11 12  1  0
 12 13  1  0
 13 14  2  0
 14 15  1  0
 15 16  2  0
 16 17  1  0
 17 18  2  0
 10 19  2  0
 19 20  1  0
 20 21  1  0
 20 22  2  0
 22 23  1  0
  2 24  1  0
 24 25  1  0
 25 26  1  0
 26 27  1  0
 27 28  1  0
 28 29  1  0
 23  6  2  0
 29 24  1  0
 22  9  1  0
 18 13  1  0
  4 30  1  0
  5 31  1  0
  5 32  1  0
  7 33  1  0
  8 34  1  0
 11 35  1  0
 11 36  1  0
 12 37  1  0
 12 38  1  0
 14 39  1  0
 15 40  1  0
 17 41  1  0
 18 42  1  0
 19 43  1  0
 21 44  1  0
 25 45  1  0
 25 46  1  0
 26 47  1  0
 26 48  1  0
 28 49  1  0
 28 50  1  0
 29 51  1  0
 29 52  1  0
M  END
>  <Energy>  (297) 
-40.243582467341895

>  <compound_id>  (297) 
345

>  <target_id>  (297) 
1

>  <reference_id>  (297) 
149

>  <inspiration_ids>  (297) 
[202, 149]

>  <energy_score>  (297) 
-58.015085756070015

>  <distance_score>  (297) 
1.4974323911697076

>  <path>  (297) 
/opt/xchem-fragalysis-2/maxwin/BulkDock/SCRATCH/505737/C345-P149/C345-P149.minimised.mol

>  <scratch_subdir>  (297) 
/opt/xchem-fragalysis-2/maxwin/BulkDock/SCRATCH/505737/C345-P149

>  <fragmenstein_runtime>  (297) 
6.188478946685791

>  <fragmenstein_outcome>  (297) 
too moved

>  <fragmenstein_mode>  (297) 
expansion

>  <fragmenstein_error>  (297) 


$$$$
C346-P202
     RDKit          3D

 52 55  0  0  0  0  0  0  0  0999 V2000
   -1.2753   -2.0615   33.2511 O   0  0  0  0  0  0  0  0  0  0  0  0
   -1.0717   -2.6856   31.9670 S   0  0  0  0  0  0  0  0  0  0  0  0
   -1.8486   -3.8320   31.5554 O   0  0  0  0  0  0  0  0  0  0  0  0
    0.5440   -3.1055   31.9323 N   0  0  0  0  0  0  0  0  0  0  0  0
    1.0612   -3.9680   30.8563 C   0  0  0  0  0  0  0  0  0  0  0  0
    1.8421   -5.1305   31.4455 C   0  0  0  0  0  0  0  0  0  0  0  0
    0.8698   -6.0314   32.1450 C   0  0  0  0  0  0  0  0  0  0  0  0
    0.6752   -5.9206   33.4294 N   0  0  0  0  0  0  0  0  0  0  0  0
   -0.3136   -6.7059   34.0126 C   0  0  0  0  0  0  0  0  0  0  0  0
   -0.4465   -6.6033   35.5099 C   0  0  0  0  0  0  0  0  0  0  0  0
   -0.4143   -5.1595   36.0224 C   0  0  0  0  0  0  0  0  0  0  0  0
   -0.4993   -5.0770   37.5260 C   0  0  0  0  0  0  0  0  0  0  0  0
   -1.4404   -4.2488   38.1338 C   0  0  0  0  0  0  0  0  0  0  0  0
   -1.4971   -4.2058   39.5197 C   0  0  0  0  0  0  0  0  0  0  0  0
   -0.6668   -4.8942   40.3317 N   0  0  0  0  0  0  0  0  0  0  0  0
    0.2541   -5.6701   39.7285 C   0  0  0  0  0  0  0  0  0  0  0  0
    0.3791   -5.7881   38.3523 C   0  0  0  0  0  0  0  0  0  0  0  0
   -1.0841   -7.5563   33.3055 C   0  0  0  0  0  0  0  0  0  0  0  0
   -0.8393   -7.7136   31.9587 N   0  0  0  0  0  0  0  0  0  0  0  0
   -1.3196   -8.5836   31.0471 N   0  0  0  0  0  0  0  0  0  0  0  0
   -0.4702   -8.3980   30.0305 C   0  0  0  0  0  0  0  0  0  0  0  0
    0.3638   -7.3338   30.1251 N   0  0  0  0  0  0  0  0  0  0  0  0
    0.1425   -6.9712   31.3623 C   0  0  0  0  0  0  0  0  0  0  0  0
   -1.1351   -1.5016   30.7996 N   0  0  0  0  0  0  0  0  0  0  0  0
   -0.4323   -0.2247   31.1094 C   0  0  0  0  0  0  0  0  0  0  0  0
   -0.4858    0.7122   29.9009 C   0  0  0  0  0  0  0  0  0  0  0  0
    0.1892    0.1807   28.7589 O   0  0  0  0  0  0  0  0  0  0  0  0
    0.1054   -1.2452   28.6660 C   0  0  0  0  0  0  0  0  0  0  0  0
   -1.1174   -1.8528   29.3550 C   0  0  0  0  0  0  0  0  0  0  0  0
    0.7949   -3.4087   32.8797 H   0  0  0  0  0  0  0  0  0  0  0  0
    1.7429   -3.3669   30.2480 H   0  0  0  0  0  0  0  0  0  0  0  0
    0.2668   -4.3283   30.1981 H   0  0  0  0  0  0  0  0  0  0  0  0
    2.3571   -5.6727   30.6475 H   0  0  0  0  0  0  0  0  0  0  0  0
    2.5973   -4.7821   32.1592 H   0  0  0  0  0  0  0  0  0  0  0  0
   -1.3703   -7.0889   35.8442 H   0  0  0  0  0  0  0  0  0  0  0  0
    0.3782   -7.1813   35.9450 H   0  0  0  0  0  0  0  0  0  0  0  0
    0.5144   -4.6586   35.7204 H   0  0  0  0  0  0  0  0  0  0  0  0
   -1.2328   -4.5909   35.5676 H   0  0  0  0  0  0  0  0  0  0  0  0
   -2.1274   -3.6467   37.5499 H   0  0  0  0  0  0  0  0  0  0  0  0
   -2.2387   -3.5962   40.0279 H   0  0  0  0  0  0  0  0  0  0  0  0
    0.9126   -6.2148   40.3991 H   0  0  0  0  0  0  0  0  0  0  0  0
    1.1568   -6.4264   37.9477 H   0  0  0  0  0  0  0  0  0  0  0  0
   -1.8448   -8.1906   33.7357 H   0  0  0  0  0  0  0  0  0  0  0  0
   -0.4670   -9.0748   29.1853 H   0  0  0  0  0  0  0  0  0  0  0  0
   -0.9216    0.2609   31.9598 H   0  0  0  0  0  0  0  0  0  0  0  0
    0.6134   -0.4308   31.3629 H   0  0  0  0  0  0  0  0  0  0  0  0
   -0.0140    1.6693   30.1437 H   0  0  0  0  0  0  0  0  0  0  0  0
   -1.5233    0.9168   29.6133 H   0  0  0  0  0  0  0  0  0  0  0  0
    0.0857   -1.4904   27.6101 H   0  0  0  0  0  0  0  0  0  0  0  0
    1.0337   -1.6495   29.0766 H   0  0  0  0  0  0  0  0  0  0  0  0
   -2.0198   -1.4341   28.9011 H   0  0  0  0  0  0  0  0  0  0  0  0
   -1.1494   -2.9328   29.1959 H   0  0  0  0  0  0  0  0  0  0  0  0
  1  2  2  0
  2  3  2  0
  2  4  1  0
  4  5  1  0
  5  6  1  0
  6  7  1  0
  7  8  2  0
  8  9  1  0
  9 10  1  0
 10 11  1  0
 11 12  1  0
 12 13  2  0
 13 14  1  0
 14 15  2  0
 15 16  1  0
 16 17  2  0
  9 18  2  0
 18 19  1  0
 19 20  1  0
 20 21  2  0
 21 22  1  0
 22 23  2  0
  2 24  1  0
 24 25  1  0
 25 26  1  0
 26 27  1  0
 27 28  1  0
 28 29  1  0
 23  7  1  0
 29 24  1  0
 17 12  1  0
 23 19  1  0
  4 30  1  0
  5 31  1  0
  5 32  1  0
  6 33  1  0
  6 34  1  0
 10 35  1  0
 10 36  1  0
 11 37  1  0
 11 38  1  0
 13 39  1  0
 14 40  1  0
 16 41  1  0
 17 42  1  0
 18 43  1  0
 21 44  1  0
 25 45  1  0
 25 46  1  0
 26 47  1  0
 26 48  1  0
 28 49  1  0
 28 50  1  0
 29 51  1  0
 29 52  1  0
M  END
>  <Energy>  (298) 
-93.79296107149186

>  <compound_id>  (298) 
346

>  <target_id>  (298) 
1

>  <reference_id>  (298) 
202

>  <inspiration_ids>  (298) 
[202, 150]

>  <energy_score>  (298) 
-60.960143314056644

>  <distance_score>  (298) 
0.9164364401728085

>  <path>  (298) 
/opt/xchem-fragalysis-2/maxwin/BulkDock/SCRATCH/505737/C346-P202/C346-P202.minimised.mol

>  <scratch_subdir>  (298) 
/opt/xchem-fragalysis-2/maxwin/BulkDock/SCRATCH/505737/C346-P202

>  <fragmenstein_runtime>  (298) 
27.689553022384644

>  <fragmenstein_outcome>  (298) 
acceptable

>  <fragmenstein_mode>  (298) 
expansion

>  <fragmenstein_error>  (298) 


$$$$
C346-P150
     RDKit          3D

 52 55  0  0  0  0  0  0  0  0999 V2000
   -1.5023   -1.8668   33.3811 O   0  0  0  0  0  0  0  0  0  0  0  0
   -1.2074   -2.5920   32.1701 S   0  0  0  0  0  0  0  0  0  0  0  0
   -1.8698   -3.8318   31.8370 O   0  0  0  0  0  0  0  0  0  0  0  0
    0.4291   -2.8948   32.2379 N   0  0  0  0  0  0  0  0  0  0  0  0
    1.0513   -3.6100   31.1265 C   0  0  0  0  0  0  0  0  0  0  0  0
    1.8692   -4.7737   31.6324 C   0  0  0  0  0  0  0  0  0  0  0  0
    0.9792   -5.7605   32.3357 C   0  0  0  0  0  0  0  0  0  0  0  0
    0.9192   -5.8228   33.6353 N   0  0  0  0  0  0  0  0  0  0  0  0
   -0.0836   -6.6118   34.2046 C   0  0  0  0  0  0  0  0  0  0  0  0
   -0.3293   -6.3733   35.6788 C   0  0  0  0  0  0  0  0  0  0  0  0
   -0.4146   -4.8583   35.9369 C   0  0  0  0  0  0  0  0  0  0  0  0
   -1.0558   -4.3822   37.2128 C   0  0  0  0  0  0  0  0  0  0  0  0
   -1.1530   -5.1529   38.3679 C   0  0  0  0  0  0  0  0  0  0  0  0
   -1.7509   -4.5944   39.4907 C   0  0  0  0  0  0  0  0  0  0  0  0
   -2.2273   -3.3315   39.5476 N   0  0  0  0  0  0  0  0  0  0  0  0
   -2.1039   -2.5924   38.4285 C   0  0  0  0  0  0  0  0  0  0  0  0
   -1.5355   -3.0653   37.2579 C   0  0  0  0  0  0  0  0  0  0  0  0
   -0.9048   -7.3998   33.4770 C   0  0  0  0  0  0  0  0  0  0  0  0
   -0.7919   -7.3761   32.1022 N   0  0  0  0  0  0  0  0  0  0  0  0
   -1.5019   -7.9509   31.1104 N   0  0  0  0  0  0  0  0  0  0  0  0
   -0.9904   -7.3436   30.0332 C   0  0  0  0  0  0  0  0  0  0  0  0
    0.0776   -6.5490   30.2237 N   0  0  0  0  0  0  0  0  0  0  0  0
    0.1382   -6.5589   31.5245 C   0  0  0  0  0  0  0  0  0  0  0  0
   -1.2764   -1.5375   30.8874 N   0  0  0  0  0  0  0  0  0  0  0  0
   -0.6092   -0.2245   31.0439 C   0  0  0  0  0  0  0  0  0  0  0  0
   -0.4927    0.4959   29.7042 C   0  0  0  0  0  0  0  0  0  0  0  0
    0.2868   -0.2828   28.8032 O   0  0  0  0  0  0  0  0  0  0  0  0
   -0.2693   -1.5794   28.5669 C   0  0  0  0  0  0  0  0  0  0  0  0
   -1.3956   -2.0360   29.4999 C   0  0  0  0  0  0  0  0  0  0  0  0
    0.6562   -3.2440   33.1730 H   0  0  0  0  0  0  0  0  0  0  0  0
    1.7104   -2.9063   30.6064 H   0  0  0  0  0  0  0  0  0  0  0  0
    0.3184   -3.9565   30.3970 H   0  0  0  0  0  0  0  0  0  0  0  0
    2.3085   -5.2233   30.7418 H   0  0  0  0  0  0  0  0  0  0  0  0
    2.6651   -4.4441   32.3083 H   0  0  0  0  0  0  0  0  0  0  0  0
   -1.2578   -6.8633   35.9873 H   0  0  0  0  0  0  0  0  0  0  0  0
    0.4827   -6.8159   36.2675 H   0  0  0  0  0  0  0  0  0  0  0  0
    0.6030   -4.4432   35.9209 H   0  0  0  0  0  0  0  0  0  0  0  0
   -0.9496   -4.3848   35.1039 H   0  0  0  0  0  0  0  0  0  0  0  0
   -0.7810   -6.1700   38.4149 H   0  0  0  0  0  0  0  0  0  0  0  0
   -1.8689   -5.1713   40.4041 H   0  0  0  0  0  0  0  0  0  0  0  0
   -2.4877   -1.5791   38.4940 H   0  0  0  0  0  0  0  0  0  0  0  0
   -1.4781   -2.4182   36.3863 H   0  0  0  0  0  0  0  0  0  0  0  0
   -1.7071   -7.9980   33.8892 H   0  0  0  0  0  0  0  0  0  0  0  0
   -1.4360   -7.4642   29.0581 H   0  0  0  0  0  0  0  0  0  0  0  0
   -1.1871    0.3916   31.7402 H   0  0  0  0  0  0  0  0  0  0  0  0
    0.3977   -0.3695   31.4498 H   0  0  0  0  0  0  0  0  0  0  0  0
    0.0212    1.4522   29.8413 H   0  0  0  0  0  0  0  0  0  0  0  0
   -1.4714    0.7034   29.2580 H   0  0  0  0  0  0  0  0  0  0  0  0
   -0.6568   -1.5806   27.5478 H   0  0  0  0  0  0  0  0  0  0  0  0
    0.5614   -2.2900   28.5924 H   0  0  0  0  0  0  0  0  0  0  0  0
   -2.3356   -1.6459   29.1119 H   0  0  0  0  0  0  0  0  0  0  0  0
   -1.4949   -3.1225   29.4526 H   0  0  0  0  0  0  0  0  0  0  0  0
  1  2  2  0
  2  3  2  0
  2  4  1  0
  4  5  1  0
  5  6  1  0
  6  7  1  0
  7  8  2  0
  8  9  1  0
  9 10  1  0
 10 11  1  0
 11 12  1  0
 12 13  2  0
 13 14  1  0
 14 15  2  0
 15 16  1  0
 16 17  2  0
  9 18  2  0
 18 19  1  0
 19 20  1  0
 20 21  2  0
 21 22  1  0
 22 23  2  0
  2 24  1  0
 24 25  1  0
 25 26  1  0
 26 27  1  0
 27 28  1  0
 28 29  1  0
 23  7  1  0
 29 24  1  0
 17 12  1  0
 23 19  1  0
  4 30  1  0
  5 31  1  0
  5 32  1  0
  6 33  1  0
  6 34  1  0
 10 35  1  0
 10 36  1  0
 11 37  1  0
 11 38  1  0
 13 39  1  0
 14 40  1  0
 16 41  1  0
 17 42  1  0
 18 43  1  0
 21 44  1  0
 25 45  1  0
 25 46  1  0
 26 47  1  0
 26 48  1  0
 28 49  1  0
 28 50  1  0
 29 51  1  0
 29 52  1  0
M  END
>  <Energy>  (299) 
-88.496681109070849

>  <compound_id>  (299) 
346

>  <target_id>  (299) 
1

>  <reference_id>  (299) 
150

>  <inspiration_ids>  (299) 
[202, 150]

>  <energy_score>  (299) 
-55.66386335163362

>  <distance_score>  (299) 
0.8612355672325056

>  <path>  (299) 
/opt/xchem-fragalysis-2/maxwin/BulkDock/SCRATCH/505737/C346-P150/C346-P150.minimised.mol

>  <scratch_subdir>  (299) 
/opt/xchem-fragalysis-2/maxwin/BulkDock/SCRATCH/505737/C346-P150

>  <fragmenstein_runtime>  (299) 
40.26125144958496

>  <fragmenstein_outcome>  (299) 
acceptable

>  <fragmenstein_mode>  (299) 
expansion

>  <fragmenstein_error>  (299) 


$$$$
C347-P202
     RDKit          3D

 57 60  0  0  0  0  0  0  0  0999 V2000
    2.9290   -3.4307   32.9619 C   0  0  0  0  0  0  0  0  0  0  0  0
    2.0393   -4.6202   32.9934 C   0  0  0  0  0  0  0  0  0  0  0  0
    2.4000   -5.9315   33.6912 C   0  0  0  0  0  0  0  0  0  0  0  0
    1.1655   -7.1931   33.6929 N   0  0  0  0  0  0  0  0  0  0  0  0
    0.4792   -6.0635   33.6604 C   0  0  0  0  0  0  0  0  0  0  0  0
    1.4987   -6.4492   32.0624 O   0  0  0  0  0  0  0  0  0  0  0  0
    0.5526   -5.1879   35.0331 C   0  0  0  0  0  0  0  0  0  0  0  0
   -0.1215   -5.9578   36.1815 C   0  0  0  0  0  0  0  0  0  0  0  0
   -0.8686   -5.0114   37.0499 N   0  0  0  0  0  0  0  0  0  0  0  0
    0.8969   -6.7143   37.0875 C   0  0  0  0  0  0  0  0  0  0  0  0
    2.0150   -7.1291   36.5683 N   0  0  0  0  0  0  0  0  0  0  0  0
    2.9302   -7.8276   37.3369 C   0  0  0  0  0  0  0  0  0  0  0  0
    4.0070   -8.1851   36.8712 O   0  0  0  0  0  0  0  0  0  0  0  0
    2.4924   -8.0759   38.6876 C   0  0  0  0  0  0  0  0  0  0  0  0
    3.3702   -8.9681   39.8329 S   0  0  0  0  0  0  0  0  0  0  0  0
    2.1305   -8.7582   41.0061 C   0  0  0  0  0  0  0  0  0  0  0  0
    1.0802   -7.9981   40.5282 C   0  0  0  0  0  0  0  0  0  0  0  0
    1.3041   -7.6173   39.1874 C   0  0  0  0  0  0  0  0  0  0  0  0
    0.4969   -6.8938   38.3978 N   0  0  0  0  0  0  0  0  0  0  0  0
   -0.1029   -7.3295   32.3392 N   0  0  0  0  0  0  0  0  0  0  0  0
   -0.3561   -5.6887   31.6651 C   0  0  0  0  0  0  0  0  0  0  0  0
    0.5096   -4.5209   32.0189 C   0  0  0  0  0  0  0  0  0  0  0  0
    0.2245   -3.2903   31.3750 N   0  0  0  0  0  0  0  0  0  0  0  0
   -1.2124   -2.5744   31.9034 S   0  0  0  0  0  0  0  0  0  0  0  0
   -0.9832   -2.0844   33.2418 O   0  0  0  0  0  0  0  0  0  0  0  0
   -2.3146   -3.4537   31.5899 O   0  0  0  0  0  0  0  0  0  0  0  0
   -1.2575   -1.2661   30.8561 N   0  0  0  0  0  0  0  0  0  0  0  0
   -0.4176   -0.0801   31.1959 C   0  0  0  0  0  0  0  0  0  0  0  0
    0.3671    0.4331   29.9891 C   0  0  0  0  0  0  0  0  0  0  0  0
    1.0205   -0.6749   29.3667 O   0  0  0  0  0  0  0  0  0  0  0  0
    0.0664   -1.5487   28.7399 C   0  0  0  0  0  0  0  0  0  0  0  0
   -1.3219   -1.5587   29.3965 C   0  0  0  0  0  0  0  0  0  0  0  0
    2.4235   -2.5646   33.3992 H   0  0  0  0  0  0  0  0  0  0  0  0
    3.2160   -3.1915   31.9337 H   0  0  0  0  0  0  0  0  0  0  0  0
    3.8449   -3.6090   33.5338 H   0  0  0  0  0  0  0  0  0  0  0  0
    3.2442   -6.2636   34.2825 H   0  0  0  0  0  0  0  0  0  0  0  0
   -0.6413   -6.1983   33.6584 H   0  0  0  0  0  0  0  0  0  0  0  0
    1.9286   -5.7817   31.5079 H   0  0  0  0  0  0  0  0  0  0  0  0
   -0.0372   -4.2841   34.8165 H   0  0  0  0  0  0  0  0  0  0  0  0
    1.5158   -4.8028   35.3932 H   0  0  0  0  0  0  0  0  0  0  0  0
   -0.8383   -6.7015   35.8158 H   0  0  0  0  0  0  0  0  0  0  0  0
   -0.2399   -4.2541   37.3275 H   0  0  0  0  0  0  0  0  0  0  0  0
   -1.5861   -4.5540   36.4778 H   0  0  0  0  0  0  0  0  0  0  0  0
    2.2330   -9.2086   41.9837 H   0  0  0  0  0  0  0  0  0  0  0  0
    0.2032   -7.7621   41.1162 H   0  0  0  0  0  0  0  0  0  0  0  0
   -0.3832   -6.4592   38.6697 H   0  0  0  0  0  0  0  0  0  0  0  0
    0.5158   -7.6990   31.5997 H   0  0  0  0  0  0  0  0  0  0  0  0
   -1.2047   -5.7893   31.0218 H   0  0  0  0  0  0  0  0  0  0  0  0
    0.9654   -2.6008   31.4956 H   0  0  0  0  0  0  0  0  0  0  0  0
   -1.0604    0.7081   31.5988 H   0  0  0  0  0  0  0  0  0  0  0  0
    0.3077   -0.3462   31.9728 H   0  0  0  0  0  0  0  0  0  0  0  0
   -0.2737    0.9485   29.2636 H   0  0  0  0  0  0  0  0  0  0  0  0
    1.1329    1.1436   30.3159 H   0  0  0  0  0  0  0  0  0  0  0  0
   -0.0342   -1.2347   27.6996 H   0  0  0  0  0  0  0  0  0  0  0  0
    0.5017   -2.5527   28.7375 H   0  0  0  0  0  0  0  0  0  0  0  0
   -1.8336   -2.5022   29.1862 H   0  0  0  0  0  0  0  0  0  0  0  0
   -1.9374   -0.7746   28.9398 H   0  0  0  0  0  0  0  0  0  0  0  0
  1  2  1  0
  2  3  2  0
  3  4  1  0
  4  5  1  0
  5  6  1  0
  5  7  1  0
  7  8  1  0
  8  9  1  0
  8 10  1  0
 10 11  2  0
 11 12  1  0
 12 13  2  0
 12 14  1  0
 14 15  1  0
 15 16  1  0
 16 17  2  0
 17 18  1  0
 18 19  1  0
  4 20  1  0
 20 21  1  0
 21 22  2  0
 22 23  1  0
 23 24  1  0
 24 25  2  0
 24 26  2  0
 24 27  1  0
 27 28  1  0
 28 29  1  0
 29 30  1  0
 30 31  1  0
 31 32  1  0
 22  2  1  0
 32 27  1  0
 19 10  1  0
 18 14  2  0
  1 33  1  0
  1 34  1  0
  1 35  1  0
  3 36  1  0
  5 37  1  0
  6 38  1  0
  7 39  1  0
  7 40  1  0
  8 41  1  0
  9 42  1  0
  9 43  1  0
 16 44  1  0
 17 45  1  0
 19 46  1  0
 20 47  1  0
 21 48  1  0
 23 49  1  0
 28 50  1  0
 28 51  1  0
 29 52  1  0
 29 53  1  0
 31 54  1  0
 31 55  1  0
 32 56  1  0
 32 57  1  0
M  END
>  <Energy>  (300) 
664.63657106885648

>  <compound_id>  (300) 
347

>  <target_id>  (300) 
1

>  <reference_id>  (300) 
202

>  <inspiration_ids>  (300) 
[202, 152]

>  <energy_score>  (300) 
609.9228714825268

>  <distance_score>  (300) 
1.7528910026606588

>  <path>  (300) 
/opt/xchem-fragalysis-2/maxwin/BulkDock/SCRATCH/505737/C347-P202/C347-P202.minimised.mol

>  <scratch_subdir>  (300) 
/opt/xchem-fragalysis-2/maxwin/BulkDock/SCRATCH/505737/C347-P202

>  <fragmenstein_runtime>  (300) 
32.831494092941284

>  <fragmenstein_outcome>  (300) 
too moved

>  <fragmenstein_mode>  (300) 
expansion

>  <fragmenstein_error>  (300) 


$$$$
C347-P152
     RDKit          3D

 57 60  0  0  0  0  0  0  0  0999 V2000
    2.6046   -4.2116   32.1107 C   0  0  0  0  0  0  0  0  0  0  0  0
    1.4769   -5.1605   32.1467 C   0  0  0  0  0  0  0  0  0  0  0  0
    1.3595   -6.1313   33.0617 C   0  0  0  0  0  0  0  0  0  0  0  0
    0.3051   -7.0407   33.0214 N   0  0  0  0  0  0  0  0  0  0  0  0
   -0.6547   -7.0496   34.1180 C   0  0  0  0  0  0  0  0  0  0  0  0
   -0.3403   -8.1180   34.9437 O   0  0  0  0  0  0  0  0  0  0  0  0
   -0.7511   -5.7744   34.9279 C   0  0  0  0  0  0  0  0  0  0  0  0
    0.2167   -5.3730   36.0413 C   0  0  0  0  0  0  0  0  0  0  0  0
    1.0655   -4.2250   35.6973 N   0  0  0  0  0  0  0  0  0  0  0  0
    1.0951   -6.4369   36.7699 C   0  0  0  0  0  0  0  0  0  0  0  0
    2.0280   -7.0544   36.0941 N   0  0  0  0  0  0  0  0  0  0  0  0
    2.9265   -7.8972   36.7441 C   0  0  0  0  0  0  0  0  0  0  0  0
    3.8306   -8.4385   36.1186 O   0  0  0  0  0  0  0  0  0  0  0  0
    2.6490   -8.0934   38.1401 C   0  0  0  0  0  0  0  0  0  0  0  0
    3.5120   -9.1353   39.1647 S   0  0  0  0  0  0  0  0  0  0  0  0
    2.4317   -8.8176   40.4622 C   0  0  0  0  0  0  0  0  0  0  0  0
    1.4728   -7.8826   40.1258 C   0  0  0  0  0  0  0  0  0  0  0  0
    1.6144   -7.4761   38.7829 C   0  0  0  0  0  0  0  0  0  0  0  0
    0.8411   -6.6028   38.1178 N   0  0  0  0  0  0  0  0  0  0  0  0
   -0.2528   -7.2649   31.7593 N   0  0  0  0  0  0  0  0  0  0  0  0
   -0.2737   -6.2116   30.8681 C   0  0  0  0  0  0  0  0  0  0  0  0
    0.4569   -5.1091   31.1248 C   0  0  0  0  0  0  0  0  0  0  0  0
    0.1051   -3.8875   30.4979 N   0  0  0  0  0  0  0  0  0  0  0  0
   -0.8658   -2.9342   31.5429 S   0  0  0  0  0  0  0  0  0  0  0  0
   -0.2382   -2.7319   32.8274 O   0  0  0  0  0  0  0  0  0  0  0  0
   -2.2069   -3.4622   31.4341 O   0  0  0  0  0  0  0  0  0  0  0  0
   -0.7944   -1.4857   30.7135 N   0  0  0  0  0  0  0  0  0  0  0  0
    0.4488   -0.6846   30.8786 C   0  0  0  0  0  0  0  0  0  0  0  0
    0.4395    0.5004   29.9111 C   0  0  0  0  0  0  0  0  0  0  0  0
    0.4466    0.0887   28.5413 O   0  0  0  0  0  0  0  0  0  0  0  0
   -0.2910   -1.1161   28.3013 C   0  0  0  0  0  0  0  0  0  0  0  0
   -1.3648   -1.4146   29.3452 C   0  0  0  0  0  0  0  0  0  0  0  0
    2.2774   -3.1826   32.2838 H   0  0  0  0  0  0  0  0  0  0  0  0
    3.1127   -4.2460   31.1406 H   0  0  0  0  0  0  0  0  0  0  0  0
    3.3547   -4.4388   32.8766 H   0  0  0  0  0  0  0  0  0  0  0  0
    2.0664   -6.2672   33.8666 H   0  0  0  0  0  0  0  0  0  0  0  0
   -1.6552   -7.2547   33.7173 H   0  0  0  0  0  0  0  0  0  0  0  0
    0.6283   -8.0687   35.0260 H   0  0  0  0  0  0  0  0  0  0  0  0
   -1.6911   -5.8987   35.4796 H   0  0  0  0  0  0  0  0  0  0  0  0
   -0.9053   -4.9306   34.2495 H   0  0  0  0  0  0  0  0  0  0  0  0
   -0.4318   -4.9561   36.8260 H   0  0  0  0  0  0  0  0  0  0  0  0
    1.8727   -4.5385   35.1623 H   0  0  0  0  0  0  0  0  0  0  0  0
    0.5587   -3.5895   35.0707 H   0  0  0  0  0  0  0  0  0  0  0  0
    2.5588   -9.3284   41.4073 H   0  0  0  0  0  0  0  0  0  0  0  0
    0.7098   -7.5472   40.8163 H   0  0  0  0  0  0  0  0  0  0  0  0
    0.1186   -6.0518   38.5700 H   0  0  0  0  0  0  0  0  0  0  0  0
   -0.9664   -7.9885   31.6733 H   0  0  0  0  0  0  0  0  0  0  0  0
   -0.9628   -6.3438   30.0622 H   0  0  0  0  0  0  0  0  0  0  0  0
   -0.4541   -4.0383   29.6568 H   0  0  0  0  0  0  0  0  0  0  0  0
    0.5035   -0.3112   31.9061 H   0  0  0  0  0  0  0  0  0  0  0  0
    1.3219   -1.3144   30.6745 H   0  0  0  0  0  0  0  0  0  0  0  0
   -0.4412    1.1299   30.0692 H   0  0  0  0  0  0  0  0  0  0  0  0
    1.3234    1.1258   30.0707 H   0  0  0  0  0  0  0  0  0  0  0  0
   -0.7648   -1.0107   27.3239 H   0  0  0  0  0  0  0  0  0  0  0  0
    0.4298   -1.9383   28.2483 H   0  0  0  0  0  0  0  0  0  0  0  0
   -1.8869   -2.3352   29.0761 H   0  0  0  0  0  0  0  0  0  0  0  0
   -2.0929   -0.6015   29.3619 H   0  0  0  0  0  0  0  0  0  0  0  0
  1  2  1  0
  2  3  2  0
  3  4  1  0
  4  5  1  0
  5  6  1  0
  5  7  1  0
  7  8  1  0
  8  9  1  0
  8 10  1  0
 10 11  2  0
 11 12  1  0
 12 13  2  0
 12 14  1  0
 14 15  1  0
 15 16  1  0
 16 17  2  0
 17 18  1  0
 18 19  1  0
  4 20  1  0
 20 21  1  0
 21 22  2  0
 22 23  1  0
 23 24  1  0
 24 25  2  0
 24 26  2  0
 24 27  1  0
 27 28  1  0
 28 29  1  0
 29 30  1  0
 30 31  1  0
 31 32  1  0
 22  2  1  0
 32 27  1  0
 19 10  1  0
 18 14  2  0
  1 33  1  0
  1 34  1  0
  1 35  1  0
  3 36  1  0
  5 37  1  0
  6 38  1  0
  7 39  1  0
  7 40  1  0
  8 41  1  0
  9 42  1  0
  9 43  1  0
 16 44  1  0
 17 45  1  0
 19 46  1  0
 20 47  1  0
 21 48  1  0
 23 49  1  0
 28 50  1  0
 28 51  1  0
 29 52  1  0
 29 53  1  0
 31 54  1  0
 31 55  1  0
 32 56  1  0
 32 57  1  0
M  END
>  <Energy>  (301) 
-39.829852855731474

>  <compound_id>  (301) 
347

>  <target_id>  (301) 
1

>  <reference_id>  (301) 
152

>  <inspiration_ids>  (301) 
[202, 152]

>  <energy_score>  (301) 
-64.208514024068

>  <distance_score>  (301) 
1.8104650757912868

>  <path>  (301) 
/opt/xchem-fragalysis-2/maxwin/BulkDock/SCRATCH/505737/C347-P152/C347-P152.minimised.mol

>  <scratch_subdir>  (301) 
/opt/xchem-fragalysis-2/maxwin/BulkDock/SCRATCH/505737/C347-P152

>  <fragmenstein_runtime>  (301) 
47.26638126373291

>  <fragmenstein_outcome>  (301) 
too moved

>  <fragmenstein_mode>  (301) 
expansion

>  <fragmenstein_error>  (301) 


$$$$
C348-P202
     RDKit          3D

 49 53  0  0  0  0  0  0  0  0999 V2000
   -0.7927   -1.6669   35.5312 C   0  0  0  0  0  0  0  0  0  0  0  0
   -0.7512   -3.1464   35.3544 C   0  0  0  0  0  0  0  0  0  0  0  0
   -1.4267   -3.9736   36.4182 C   0  0  0  0  0  0  0  0  0  0  0  0
   -1.5937   -5.2647   36.4212 N   0  0  0  0  0  0  0  0  0  0  0  0
   -1.1008   -5.9225   35.3405 C   0  0  0  0  0  0  0  0  0  0  0  0
   -1.2739   -7.1388   34.7016 C   0  0  0  0  0  0  0  0  0  0  0  0
   -2.1972   -8.0546   35.0383 O   0  0  0  0  0  0  0  0  0  0  0  0
   -0.2422   -7.2641   33.7224 C   0  0  0  0  0  0  0  0  0  0  0  0
    0.6575   -6.2791   34.1304 C   0  0  0  0  0  0  0  0  0  0  0  0
    1.9099   -6.5018   34.8717 C   0  0  0  0  0  0  0  0  0  0  0  0
    2.5137   -7.6265   34.6015 N   0  0  0  0  0  0  0  0  0  0  0  0
    3.5498   -8.0582   35.4209 C   0  0  0  0  0  0  0  0  0  0  0  0
    4.2718   -8.9850   35.0775 O   0  0  0  0  0  0  0  0  0  0  0  0
    3.6262   -7.3705   36.6797 C   0  0  0  0  0  0  0  0  0  0  0  0
    4.4730   -7.9175   38.0398 S   0  0  0  0  0  0  0  0  0  0  0  0
    3.9607   -6.5530   38.9543 C   0  0  0  0  0  0  0  0  0  0  0  0
    3.1732   -5.6924   38.2124 C   0  0  0  0  0  0  0  0  0  0  0  0
    2.9938   -6.1833   36.8993 C   0  0  0  0  0  0  0  0  0  0  0  0
    2.2737   -5.6315   35.9010 N   0  0  0  0  0  0  0  0  0  0  0  0
   -0.2266   -5.2774   34.4871 N   0  0  0  0  0  0  0  0  0  0  0  0
   -0.1750   -3.8918   34.3934 C   0  0  0  0  0  0  0  0  0  0  0  0
    0.3801   -3.2295   33.2390 N   0  0  0  0  0  0  0  0  0  0  0  0
   -0.8947   -2.8534   32.1411 S   0  0  0  0  0  0  0  0  0  0  0  0
   -1.7059   -1.7853   32.6720 O   0  0  0  0  0  0  0  0  0  0  0  0
   -1.4700   -4.1013   31.6933 O   0  0  0  0  0  0  0  0  0  0  0  0
    0.0270   -2.2176   30.8760 N   0  0  0  0  0  0  0  0  0  0  0  0
    0.7058   -0.9105   31.1756 C   0  0  0  0  0  0  0  0  0  0  0  0
   -0.0880    0.2674   30.6076 C   0  0  0  0  0  0  0  0  0  0  0  0
   -0.1840    0.2338   29.1815 O   0  0  0  0  0  0  0  0  0  0  0  0
   -0.1728   -1.0917   28.6337 C   0  0  0  0  0  0  0  0  0  0  0  0
   -0.7523   -2.1462   29.5793 C   0  0  0  0  0  0  0  0  0  0  0  0
   -1.8168   -1.2967   35.4213 H   0  0  0  0  0  0  0  0  0  0  0  0
   -0.1548   -1.1407   34.8152 H   0  0  0  0  0  0  0  0  0  0  0  0
   -0.4385   -1.3957   36.5315 H   0  0  0  0  0  0  0  0  0  0  0  0
   -1.8222   -3.4011   37.2751 H   0  0  0  0  0  0  0  0  0  0  0  0
   -1.8921   -8.9449   34.7456 H   0  0  0  0  0  0  0  0  0  0  0  0
   -0.0210   -8.1645   33.1775 H   0  0  0  0  0  0  0  0  0  0  0  0
    4.2655   -6.4532   39.9878 H   0  0  0  0  0  0  0  0  0  0  0  0
    2.7556   -4.7784   38.6152 H   0  0  0  0  0  0  0  0  0  0  0  0
    1.6468   -4.8684   36.1270 H   0  0  0  0  0  0  0  0  0  0  0  0
    0.9695   -3.8693   32.6985 H   0  0  0  0  0  0  0  0  0  0  0  0
    0.8553   -0.7797   32.2519 H   0  0  0  0  0  0  0  0  0  0  0  0
    1.7022   -0.9539   30.7194 H   0  0  0  0  0  0  0  0  0  0  0  0
   -1.1052    0.2936   31.0133 H   0  0  0  0  0  0  0  0  0  0  0  0
    0.3946    1.2117   30.8792 H   0  0  0  0  0  0  0  0  0  0  0  0
    0.8618   -1.3369   28.3690 H   0  0  0  0  0  0  0  0  0  0  0  0
   -0.7562   -1.0594   27.7105 H   0  0  0  0  0  0  0  0  0  0  0  0
   -0.7235   -3.1314   29.1024 H   0  0  0  0  0  0  0  0  0  0  0  0
   -1.7932   -1.8858   29.7971 H   0  0  0  0  0  0  0  0  0  0  0  0
  1  2  1  0
  2  3  1  0
  3  4  2  0
  4  5  1  0
  5  6  2  0
  6  7  1  0
  6  8  1  0
  8  9  2  0
  9 10  1  0
 10 11  2  0
 11 12  1  0
 12 13  2  0
 12 14  1  0
 14 15  1  0
 15 16  1  0
 16 17  2  0
 17 18  1  0
 18 19  1  0
  9 20  1  0
 20 21  1  0
 21 22  1  0
 22 23  1  0
 23 24  2  0
 23 25  2  0
 23 26  1  0
 26 27  1  0
 27 28  1  0
 28 29  1  0
 29 30  1  0
 30 31  1  0
 21  2  2  0
 31 26  1  0
 20  5  1  0
 19 10  1  0
 18 14  2  0
  1 32  1  0
  1 33  1  0
  1 34  1  0
  3 35  1  0
  7 36  1  0
  8 37  1  0
 16 38  1  0
 17 39  1  0
 19 40  1  0
 22 41  1  0
 27 42  1  0
 27 43  1  0
 28 44  1  0
 28 45  1  0
 30 46  1  0
 30 47  1  0
 31 48  1  0
 31 49  1  0
M  END
>  <Energy>  (302) 
-57.477540825896639

>  <compound_id>  (302) 
348

>  <target_id>  (302) 
1

>  <reference_id>  (302) 
202

>  <inspiration_ids>  (302) 
[202, 153]

>  <energy_score>  (302) 
-78.37487175299975

>  <distance_score>  (302) 
2.658684238275986

>  <path>  (302) 
/opt/xchem-fragalysis-2/maxwin/BulkDock/SCRATCH/505737/C348-P202/C348-P202.minimised.mol

>  <scratch_subdir>  (302) 
/opt/xchem-fragalysis-2/maxwin/BulkDock/SCRATCH/505737/C348-P202

>  <fragmenstein_runtime>  (302) 
17.968987226486206

>  <fragmenstein_outcome>  (302) 
too moved

>  <fragmenstein_mode>  (302) 
expansion

>  <fragmenstein_error>  (302) 


$$$$
C348-P153
     RDKit          3D

 49 53  0  0  0  0  0  0  0  0999 V2000
   -0.9203   -2.9355   35.9037 C   0  0  0  0  0  0  0  0  0  0  0  0
   -0.7695   -4.1711   35.0869 C   0  0  0  0  0  0  0  0  0  0  0  0
   -1.4500   -5.4238   35.6121 C   0  0  0  0  0  0  0  0  0  0  0  0
   -1.7273   -6.5268   34.9573 N   0  0  0  0  0  0  0  0  0  0  0  0
   -1.1663   -6.5924   33.7208 C   0  0  0  0  0  0  0  0  0  0  0  0
   -1.0467   -7.4561   32.6516 C   0  0  0  0  0  0  0  0  0  0  0  0
   -1.8388   -8.4543   32.2445 O   0  0  0  0  0  0  0  0  0  0  0  0
    0.2571   -7.2031   32.1602 C   0  0  0  0  0  0  0  0  0  0  0  0
    0.8905   -6.4781   33.1906 C   0  0  0  0  0  0  0  0  0  0  0  0
    1.5934   -6.8452   34.4818 C   0  0  0  0  0  0  0  0  0  0  0  0
    2.7845   -6.3438   34.6481 N   0  0  0  0  0  0  0  0  0  0  0  0
    3.4686   -6.4861   35.8617 C   0  0  0  0  0  0  0  0  0  0  0  0
    4.6485   -6.1719   35.9636 O   0  0  0  0  0  0  0  0  0  0  0  0
    2.6728   -6.9901   36.9485 C   0  0  0  0  0  0  0  0  0  0  0  0
    3.1778   -7.0799   38.5654 S   0  0  0  0  0  0  0  0  0  0  0  0
    1.6792   -7.7672   39.0264 C   0  0  0  0  0  0  0  0  0  0  0  0
    0.8368   -7.9374   37.9450 C   0  0  0  0  0  0  0  0  0  0  0  0
    1.4316   -7.5017   36.7457 C   0  0  0  0  0  0  0  0  0  0  0  0
    0.9444   -7.5746   35.4865 N   0  0  0  0  0  0  0  0  0  0  0  0
   -0.2086   -5.6391   33.3526 N   0  0  0  0  0  0  0  0  0  0  0  0
   -0.1862   -4.3714   33.8947 C   0  0  0  0  0  0  0  0  0  0  0  0
    0.3009   -3.2740   33.1134 N   0  0  0  0  0  0  0  0  0  0  0  0
   -0.9633   -2.6639   32.1412 S   0  0  0  0  0  0  0  0  0  0  0  0
   -1.4479   -1.4882   32.8240 O   0  0  0  0  0  0  0  0  0  0  0  0
   -1.8478   -3.7404   31.7563 O   0  0  0  0  0  0  0  0  0  0  0  0
   -0.0932   -2.1734   30.7893 N   0  0  0  0  0  0  0  0  0  0  0  0
    0.7036   -0.9179   30.9288 C   0  0  0  0  0  0  0  0  0  0  0  0
   -0.0381    0.2627   30.2977 C   0  0  0  0  0  0  0  0  0  0  0  0
   -0.2303    0.1114   28.8892 O   0  0  0  0  0  0  0  0  0  0  0  0
   -0.3094   -1.2562   28.4598 C   0  0  0  0  0  0  0  0  0  0  0  0
   -0.8988   -2.1909   29.5174 C   0  0  0  0  0  0  0  0  0  0  0  0
   -0.5167   -3.0970   36.9087 H   0  0  0  0  0  0  0  0  0  0  0  0
   -1.9773   -2.6669   35.9976 H   0  0  0  0  0  0  0  0  0  0  0  0
   -0.3943   -2.0779   35.4770 H   0  0  0  0  0  0  0  0  0  0  0  0
   -1.7845   -5.3476   36.6586 H   0  0  0  0  0  0  0  0  0  0  0  0
   -2.5588   -8.6306   32.8788 H   0  0  0  0  0  0  0  0  0  0  0  0
    0.6887   -7.7397   31.3388 H   0  0  0  0  0  0  0  0  0  0  0  0
    1.4939   -8.0391   40.0568 H   0  0  0  0  0  0  0  0  0  0  0  0
   -0.1278   -8.4135   38.0198 H   0  0  0  0  0  0  0  0  0  0  0  0
   -0.0123   -7.8983   35.3229 H   0  0  0  0  0  0  0  0  0  0  0  0
    0.6394   -2.4867   33.6647 H   0  0  0  0  0  0  0  0  0  0  0  0
    0.9325   -0.7082   31.9784 H   0  0  0  0  0  0  0  0  0  0  0  0
    1.6628   -1.0813   30.4229 H   0  0  0  0  0  0  0  0  0  0  0  0
   -1.0230    0.3990   30.7582 H   0  0  0  0  0  0  0  0  0  0  0  0
    0.5258    1.1879   30.4527 H   0  0  0  0  0  0  0  0  0  0  0  0
    0.6993   -1.5781   28.1785 H   0  0  0  0  0  0  0  0  0  0  0  0
   -0.9307   -1.2730   27.5610 H   0  0  0  0  0  0  0  0  0  0  0  0
   -0.9273   -3.2158   29.1350 H   0  0  0  0  0  0  0  0  0  0  0  0
   -1.9133   -1.8627   29.7490 H   0  0  0  0  0  0  0  0  0  0  0  0
  1  2  1  0
  2  3  1  0
  3  4  2  0
  4  5  1  0
  5  6  2  0
  6  7  1  0
  6  8  1  0
  8  9  2  0
  9 10  1  0
 10 11  2  0
 11 12  1  0
 12 13  2  0
 12 14  1  0
 14 15  1  0
 15 16  1  0
 16 17  2  0
 17 18  1  0
 18 19  1  0
  9 20  1  0
 20 21  1  0
 21 22  1  0
 22 23  1  0
 23 24  2  0
 23 25  2  0
 23 26  1  0
 26 27  1  0
 27 28  1  0
 28 29  1  0
 29 30  1  0
 30 31  1  0
 21  2  2  0
 31 26  1  0
 20  5  1  0
 19 10  1  0
 18 14  2  0
  1 32  1  0
  1 33  1  0
  1 34  1  0
  3 35  1  0
  7 36  1  0
  8 37  1  0
 16 38  1  0
 17 39  1  0
 19 40  1  0
 22 41  1  0
 27 42  1  0
 27 43  1  0
 28 44  1  0
 28 45  1  0
 30 46  1  0
 30 47  1  0
 31 48  1  0
 31 49  1  0
M  END
>  <Energy>  (303) 
-22.448287527680858

>  <compound_id>  (303) 
348

>  <target_id>  (303) 
1

>  <reference_id>  (303) 
153

>  <inspiration_ids>  (303) 
[202, 153]

>  <energy_score>  (303) 
-32.15635662853964

>  <distance_score>  (303) 
2.0077747707199554

>  <path>  (303) 
/opt/xchem-fragalysis-2/maxwin/BulkDock/SCRATCH/505737/C348-P153/C348-P153.minimised.mol

>  <scratch_subdir>  (303) 
/opt/xchem-fragalysis-2/maxwin/BulkDock/SCRATCH/505737/C348-P153

>  <fragmenstein_runtime>  (303) 
16.14155340194702

>  <fragmenstein_outcome>  (303) 
too moved

>  <fragmenstein_mode>  (303) 
expansion

>  <fragmenstein_error>  (303) 


$$$$
C349-P202
     RDKit          3D

 74 78  0  0  0  0  0  0  0  0999 V2000
   -0.6231   -6.5200   35.4635 C   0  0  0  0  0  0  0  0  0  0  0  0
   -0.4369   -6.7350   33.9933 C   0  0  0  0  0  0  0  0  0  0  0  0
   -1.2056   -7.6497   33.3112 C   0  0  0  0  0  0  0  0  0  0  0  0
   -0.8779   -7.8305   31.9955 C   0  0  0  0  0  0  0  0  0  0  0  0
   -1.4467   -8.8157   31.2607 O   0  0  0  0  0  0  0  0  0  0  0  0
    0.0759   -7.1743   31.3378 N   0  0  0  0  0  0  0  0  0  0  0  0
    0.7193   -6.2546   32.0696 C   0  0  0  0  0  0  0  0  0  0  0  0
    1.7255   -5.3984   31.3779 C   0  0  0  0  0  0  0  0  0  0  0  0
    1.0571   -4.1615   30.7561 C   0  0  0  0  0  0  0  0  0  0  0  0
    2.0328   -3.4143   29.9622 N   0  0  0  0  0  0  0  0  0  0  0  0
    2.5047   -4.1056   28.7428 C   0  0  0  0  0  0  0  0  0  0  0  0
    4.0397   -4.0235   28.4151 C   0  0  0  0  0  0  0  0  0  0  0  0
    5.0163   -3.3406   29.8348 S   0  0  0  0  0  0  0  0  0  0  0  0
    4.2946   -2.9308   27.0017 Cl  0  0  0  0  0  0  0  0  0  0  0  0
    4.6307   -5.4463   28.0598 C   0  0  0  0  0  0  0  0  0  0  0  0
    3.9887   -6.4282   28.1303 O   0  0  0  0  0  0  0  0  0  0  0  0
    6.1495   -5.2489   27.7309 N   0  0  0  0  0  0  0  0  0  0  0  0
    7.1693   -6.2205   27.3257 C   0  0  0  0  0  0  0  0  0  0  0  0
    8.5868   -5.5003   27.2160 C   0  0  0  0  0  0  0  0  0  0  0  0
    8.7797   -4.2275   27.6069 N   0  0  0  0  0  0  0  0  0  0  0  0
   10.0363   -4.0166   27.1731 N   0  0  0  0  0  0  0  0  0  0  0  0
   10.5774   -5.1357   26.6069 C   0  0  0  0  0  0  0  0  0  0  0  0
   11.8667   -5.2027   25.9853 C   0  0  0  0  0  0  0  0  0  0  0  0
   12.6975   -4.1552   25.6298 C   0  0  0  0  0  0  0  0  0  0  0  0
   13.9061   -4.5976   25.0126 C   0  0  0  0  0  0  0  0  0  0  0  0
   13.9621   -5.9685   24.9140 C   0  0  0  0  0  0  0  0  0  0  0  0
   12.5592   -6.7120   25.5452 S   0  0  0  0  0  0  0  0  0  0  0  0
    9.6979   -6.1103   26.6844 N   0  0  0  0  0  0  0  0  0  0  0  0
    7.2145   -7.5189   28.1659 C   0  0  0  0  0  0  0  0  0  0  0  0
    7.4599   -8.2898   26.8528 C   0  0  0  0  0  0  0  0  0  0  0  0
    6.8012   -7.1071   26.1055 C   0  0  0  0  0  0  0  0  0  0  0  0
    0.6375   -3.2486   31.8210 N   0  0  0  0  0  0  0  0  0  0  0  0
   -0.9581   -2.7634   31.9064 S   0  0  0  0  0  0  0  0  0  0  0  0
   -1.1019   -2.1677   33.2134 O   0  0  0  0  0  0  0  0  0  0  0  0
   -1.8094   -3.8503   31.4849 O   0  0  0  0  0  0  0  0  0  0  0  0
   -1.0069   -1.5372   30.7858 N   0  0  0  0  0  0  0  0  0  0  0  0
   -0.2519   -0.2998   31.1075 C   0  0  0  0  0  0  0  0  0  0  0  0
   -0.5059    0.7415   30.0168 C   0  0  0  0  0  0  0  0  0  0  0  0
   -0.0179    0.3492   28.7342 O   0  0  0  0  0  0  0  0  0  0  0  0
    0.0078   -1.0700   28.5543 C   0  0  0  0  0  0  0  0  0  0  0  0
   -1.0690   -1.8330   29.3304 C   0  0  0  0  0  0  0  0  0  0  0  0
    0.5308   -6.0243   33.3810 N   0  0  0  0  0  0  0  0  0  0  0  0
    0.1186   -5.8141   35.8509 H   0  0  0  0  0  0  0  0  0  0  0  0
   -0.5050   -7.4654   36.0024 H   0  0  0  0  0  0  0  0  0  0  0  0
   -1.6157   -6.1125   35.6653 H   0  0  0  0  0  0  0  0  0  0  0  0
   -1.9733   -8.2361   33.7914 H   0  0  0  0  0  0  0  0  0  0  0  0
   -0.7339   -8.9694   30.6116 H   0  0  0  0  0  0  0  0  0  0  0  0
    2.2127   -6.0054   30.6152 H   0  0  0  0  0  0  0  0  0  0  0  0
    2.5092   -5.1076   32.0900 H   0  0  0  0  0  0  0  0  0  0  0  0
    0.2186   -4.4614   30.1206 H   0  0  0  0  0  0  0  0  0  0  0  0
    2.8159   -3.1672   30.5690 H   0  0  0  0  0  0  0  0  0  0  0  0
    2.1760   -5.1477   28.7457 H   0  0  0  0  0  0  0  0  0  0  0  0
    1.9343   -3.6716   27.9145 H   0  0  0  0  0  0  0  0  0  0  0  0
    4.6570   -2.0640   29.6253 H   0  0  0  0  0  0  0  0  0  0  0  0
    6.3968   -4.2636   27.8366 H   0  0  0  0  0  0  0  0  0  0  0  0
   10.4498   -3.0994   27.2775 H   0  0  0  0  0  0  0  0  0  0  0  0
   12.4606   -3.1092   25.7808 H   0  0  0  0  0  0  0  0  0  0  0  0
   14.6906   -3.9403   24.6568 H   0  0  0  0  0  0  0  0  0  0  0  0
   14.7579   -6.5704   24.4971 H   0  0  0  0  0  0  0  0  0  0  0  0
    8.0165   -7.5981   28.9062 H   0  0  0  0  0  0  0  0  0  0  0  0
    6.2735   -7.7869   28.6575 H   0  0  0  0  0  0  0  0  0  0  0  0
    6.9659   -9.2568   26.7579 H   0  0  0  0  0  0  0  0  0  0  0  0
    8.5190   -8.4359   26.6117 H   0  0  0  0  0  0  0  0  0  0  0  0
    5.7250   -7.2421   25.9437 H   0  0  0  0  0  0  0  0  0  0  0  0
    7.2603   -6.8488   25.1475 H   0  0  0  0  0  0  0  0  0  0  0  0
    0.8621   -3.5948   32.7587 H   0  0  0  0  0  0  0  0  0  0  0  0
    0.8185   -0.5237   31.1719 H   0  0  0  0  0  0  0  0  0  0  0  0
   -0.5944    0.1054   32.0648 H   0  0  0  0  0  0  0  0  0  0  0  0
   -0.0226    1.6882   30.2765 H   0  0  0  0  0  0  0  0  0  0  0  0
   -1.5803    0.9277   29.9133 H   0  0  0  0  0  0  0  0  0  0  0  0
   -0.1249   -1.2482   27.4932 H   0  0  0  0  0  0  0  0  0  0  0  0
    1.0113   -1.4037   28.8196 H   0  0  0  0  0  0  0  0  0  0  0  0
   -0.9959   -2.9024   29.1232 H   0  0  0  0  0  0  0  0  0  0  0  0
   -2.0455   -1.4991   28.9734 H   0  0  0  0  0  0  0  0  0  0  0  0
  1  2  1  0
  2  3  2  0
  3  4  1  0
  4  5  1  0
  4  6  2  0
  6  7  1  0
  7  8  1  0
  8  9  1  0
  9 10  1  0
 10 11  1  0
 11 12  1  0
 12 13  1  0
 12 14  1  0
 12 15  1  0
 15 16  2  0
 15 17  1  0
 17 18  1  0
 18 19  1  0
 19 20  2  0
 20 21  1  0
 21 22  1  0
 22 23  1  0
 23 24  2  0
 24 25  1  0
 25 26  2  0
 26 27  1  0
 22 28  2  0
 18 29  1  0
 29 30  1  0
 30 31  1  0
  9 32  1  0
 32 33  1  0
 33 34  2  0
 33 35  2  0
 33 36  1  0
 36 37  1  0
 37 38  1  0
 38 39  1  0
 39 40  1  0
 40 41  1  0
  7 42  2  0
 42  2  1  0
 31 18  1  0
 41 36  1  0
 28 19  1  0
 27 23  1  0
  1 43  1  0
  1 44  1  0
  1 45  1  0
  3 46  1  0
  5 47  1  0
  8 48  1  0
  8 49  1  0
  9 50  1  0
 10 51  1  0
 11 52  1  0
 11 53  1  0
 13 54  1  0
 17 55  1  0
 21 56  1  0
 24 57  1  0
 25 58  1  0
 26 59  1  0
 29 60  1  0
 29 61  1  0
 30 62  1  0
 30 63  1  0
 31 64  1  0
 31 65  1  0
 32 66  1  0
 37 67  1  0
 37 68  1  0
 38 69  1  0
 38 70  1  0
 40 71  1  0
 40 72  1  0
 41 73  1  0
 41 74  1  0
M  END
>  <Energy>  (304) 
-91.480096898258722

>  <compound_id>  (304) 
349

>  <target_id>  (304) 
1

>  <reference_id>  (304) 
202

>  <inspiration_ids>  (304) 
[202, 154]

>  <energy_score>  (304) 
-119.11576688105167

>  <distance_score>  (304) 
1.247621627350714

>  <path>  (304) 
/opt/xchem-fragalysis-2/maxwin/BulkDock/SCRATCH/505737/C349-P202/C349-P202.minimised.mol

>  <scratch_subdir>  (304) 
/opt/xchem-fragalysis-2/maxwin/BulkDock/SCRATCH/505737/C349-P202

>  <fragmenstein_runtime>  (304) 
26.947638988494873

>  <fragmenstein_outcome>  (304) 
too moved

>  <fragmenstein_mode>  (304) 
expansion

>  <fragmenstein_error>  (304) 


$$$$
C349-P154
     RDKit          3D

 74 78  0  0  0  0  0  0  0  0999 V2000
   -0.3601   -6.7550   35.7672 C   0  0  0  0  0  0  0  0  0  0  0  0
   -0.1667   -6.7489   34.2821 C   0  0  0  0  0  0  0  0  0  0  0  0
   -0.9445   -7.5367   33.4647 C   0  0  0  0  0  0  0  0  0  0  0  0
   -0.6213   -7.5113   32.1368 C   0  0  0  0  0  0  0  0  0  0  0  0
   -1.2264   -8.3447   31.2525 O   0  0  0  0  0  0  0  0  0  0  0  0
    0.3402   -6.7662   31.5929 N   0  0  0  0  0  0  0  0  0  0  0  0
    0.9690   -5.9504   32.4559 C   0  0  0  0  0  0  0  0  0  0  0  0
    1.9953   -5.0150   31.9062 C   0  0  0  0  0  0  0  0  0  0  0  0
    1.3885   -4.0418   30.8775 C   0  0  0  0  0  0  0  0  0  0  0  0
    2.4296   -3.5221   29.9824 N   0  0  0  0  0  0  0  0  0  0  0  0
    2.9075   -4.5258   28.9970 C   0  0  0  0  0  0  0  0  0  0  0  0
    4.4044   -4.4082   28.5617 C   0  0  0  0  0  0  0  0  0  0  0  0
    5.4514   -3.9890   30.0454 S   0  0  0  0  0  0  0  0  0  0  0  0
    4.6021   -3.1186   27.3350 Cl  0  0  0  0  0  0  0  0  0  0  0  0
    4.9397   -5.7751   27.9841 C   0  0  0  0  0  0  0  0  0  0  0  0
    4.2498   -6.7585   28.0656 O   0  0  0  0  0  0  0  0  0  0  0  0
    6.2967   -5.6100   27.5048 N   0  0  0  0  0  0  0  0  0  0  0  0
    7.2886   -6.5960   27.0604 C   0  0  0  0  0  0  0  0  0  0  0  0
    8.7129   -5.8853   26.9593 C   0  0  0  0  0  0  0  0  0  0  0  0
    8.9478   -4.6794   27.5094 N   0  0  0  0  0  0  0  0  0  0  0  0
   10.1800   -4.4199   27.0323 N   0  0  0  0  0  0  0  0  0  0  0  0
   10.6743   -5.4624   26.3010 C   0  0  0  0  0  0  0  0  0  0  0  0
   11.9329   -5.4626   25.6174 C   0  0  0  0  0  0  0  0  0  0  0  0
   12.7020   -4.3728   25.2518 C   0  0  0  0  0  0  0  0  0  0  0  0
   13.8952   -4.7494   24.5653 C   0  0  0  0  0  0  0  0  0  0  0  0
   14.0016   -6.1141   24.4278 C   0  0  0  0  0  0  0  0  0  0  0  0
   12.6628   -6.9308   25.1065 S   0  0  0  0  0  0  0  0  0  0  0  0
    9.7826   -6.4293   26.2907 N   0  0  0  0  0  0  0  0  0  0  0  0
    7.3512   -7.9280   27.8493 C   0  0  0  0  0  0  0  0  0  0  0  0
    7.5443   -8.6481   26.4955 C   0  0  0  0  0  0  0  0  0  0  0  0
    6.8822   -7.4270   25.8199 C   0  0  0  0  0  0  0  0  0  0  0  0
    0.8437   -2.8784   31.5717 N   0  0  0  0  0  0  0  0  0  0  0  0
   -0.8018   -2.6872   31.7356 S   0  0  0  0  0  0  0  0  0  0  0  0
   -1.0031   -2.0025   32.9902 O   0  0  0  0  0  0  0  0  0  0  0  0
   -1.4922   -3.9149   31.4202 O   0  0  0  0  0  0  0  0  0  0  0  0
   -1.0825   -1.5697   30.5135 N   0  0  0  0  0  0  0  0  0  0  0  0
   -0.5746   -0.1872   30.7728 C   0  0  0  0  0  0  0  0  0  0  0  0
   -0.6488    0.6617   29.4994 C   0  0  0  0  0  0  0  0  0  0  0  0
    0.1323    0.1475   28.4158 O   0  0  0  0  0  0  0  0  0  0  0  0
    0.3548   -1.2680   28.5045 C   0  0  0  0  0  0  0  0  0  0  0  0
   -0.8420   -2.0139   29.1066 C   0  0  0  0  0  0  0  0  0  0  0  0
    0.7968   -5.9481   33.7875 N   0  0  0  0  0  0  0  0  0  0  0  0
    0.4694   -6.2445   36.2674 H   0  0  0  0  0  0  0  0  0  0  0  0
   -0.3954   -7.7820   36.1433 H   0  0  0  0  0  0  0  0  0  0  0  0
   -1.2853   -6.2413   36.0346 H   0  0  0  0  0  0  0  0  0  0  0  0
   -1.7247   -8.1724   33.8497 H   0  0  0  0  0  0  0  0  0  0  0  0
   -0.5660   -8.3192   30.5353 H   0  0  0  0  0  0  0  0  0  0  0  0
    2.7697   -5.6427   31.4648 H   0  0  0  0  0  0  0  0  0  0  0  0
    2.4862   -4.4686   32.7222 H   0  0  0  0  0  0  0  0  0  0  0  0
    0.6264   -4.5204   30.2547 H   0  0  0  0  0  0  0  0  0  0  0  0
    3.2153   -3.1828   30.5397 H   0  0  0  0  0  0  0  0  0  0  0  0
    2.7398   -5.5327   29.3918 H   0  0  0  0  0  0  0  0  0  0  0  0
    2.2633   -4.4632   28.1108 H   0  0  0  0  0  0  0  0  0  0  0  0
    6.6256   -3.9148   29.3995 H   0  0  0  0  0  0  0  0  0  0  0  0
    6.5308   -4.6177   27.5035 H   0  0  0  0  0  0  0  0  0  0  0  0
   10.6129   -3.5271   27.2306 H   0  0  0  0  0  0  0  0  0  0  0  0
   12.4282   -3.3416   25.4405 H   0  0  0  0  0  0  0  0  0  0  0  0
   14.6341   -4.0512   24.1897 H   0  0  0  0  0  0  0  0  0  0  0  0
   14.8003   -6.6716   23.9573 H   0  0  0  0  0  0  0  0  0  0  0  0
    8.1803   -8.0427   28.5546 H   0  0  0  0  0  0  0  0  0  0  0  0
    6.4300   -8.2072   28.3676 H   0  0  0  0  0  0  0  0  0  0  0  0
    7.0295   -9.6026   26.3744 H   0  0  0  0  0  0  0  0  0  0  0  0
    8.5936   -8.7973   26.2160 H   0  0  0  0  0  0  0  0  0  0  0  0
    5.8002   -7.5427   25.6825 H   0  0  0  0  0  0  0  0  0  0  0  0
    7.3160   -7.1278   24.8624 H   0  0  0  0  0  0  0  0  0  0  0  0
    1.3096   -2.6119   32.4369 H   0  0  0  0  0  0  0  0  0  0  0  0
    0.4645   -0.2281   31.1181 H   0  0  0  0  0  0  0  0  0  0  0  0
   -1.1897    0.2782   31.5499 H   0  0  0  0  0  0  0  0  0  0  0  0
   -0.2898    1.6751   29.7019 H   0  0  0  0  0  0  0  0  0  0  0  0
   -1.6849    0.7427   29.1530 H   0  0  0  0  0  0  0  0  0  0  0  0
    0.5757   -1.6395   27.5005 H   0  0  0  0  0  0  0  0  0  0  0  0
    1.2584   -1.4066   29.1015 H   0  0  0  0  0  0  0  0  0  0  0  0
   -0.6922   -3.0939   29.0394 H   0  0  0  0  0  0  0  0  0  0  0  0
   -1.7553   -1.7820   28.5490 H   0  0  0  0  0  0  0  0  0  0  0  0
  1  2  1  0
  2  3  2  0
  3  4  1  0
  4  5  1  0
  4  6  2  0
  6  7  1  0
  7  8  1  0
  8  9  1  0
  9 10  1  0
 10 11  1  0
 11 12  1  0
 12 13  1  0
 12 14  1  0
 12 15  1  0
 15 16  2  0
 15 17  1  0
 17 18  1  0
 18 19  1  0
 19 20  2  0
 20 21  1  0
 21 22  1  0
 22 23  1  0
 23 24  2  0
 24 25  1  0
 25 26  2  0
 26 27  1  0
 22 28  2  0
 18 29  1  0
 29 30  1  0
 30 31  1  0
  9 32  1  0
 32 33  1  0
 33 34  2  0
 33 35  2  0
 33 36  1  0
 36 37  1  0
 37 38  1  0
 38 39  1  0
 39 40  1  0
 40 41  1  0
  7 42  2  0
 42  2  1  0
 31 18  1  0
 41 36  1  0
 28 19  1  0
 27 23  1  0
  1 43  1  0
  1 44  1  0
  1 45  1  0
  3 46  1  0
  5 47  1  0
  8 48  1  0
  8 49  1  0
  9 50  1  0
 10 51  1  0
 11 52  1  0
 11 53  1  0
 13 54  1  0
 17 55  1  0
 21 56  1  0
 24 57  1  0
 25 58  1  0
 26 59  1  0
 29 60  1  0
 29 61  1  0
 30 62  1  0
 30 63  1  0
 31 64  1  0
 31 65  1  0
 32 66  1  0
 37 67  1  0
 37 68  1  0
 38 69  1  0
 38 70  1  0
 40 71  1  0
 40 72  1  0
 41 73  1  0
 41 74  1  0
M  END
>  <Energy>  (305) 
-103.40003299613262

>  <compound_id>  (305) 
349

>  <target_id>  (305) 
1

>  <reference_id>  (305) 
154

>  <inspiration_ids>  (305) 
[202, 154]

>  <energy_score>  (305) 
-81.18355836558543

>  <distance_score>  (305) 
1.499027215299435

>  <path>  (305) 
/opt/xchem-fragalysis-2/maxwin/BulkDock/SCRATCH/505737/C349-P154/C349-P154.minimised.mol

>  <scratch_subdir>  (305) 
/opt/xchem-fragalysis-2/maxwin/BulkDock/SCRATCH/505737/C349-P154

>  <fragmenstein_runtime>  (305) 
33.76733112335205

>  <fragmenstein_outcome>  (305) 
too moved

>  <fragmenstein_mode>  (305) 
expansion

>  <fragmenstein_error>  (305) 


$$$$
C350-P202
     RDKit          3D

 62 65  0  0  0  0  0  0  0  0999 V2000
   -0.4823   -6.3951   35.3304 C   0  0  0  0  0  0  0  0  0  0  0  0
   -0.2394   -6.5515   33.8598 C   0  0  0  0  0  0  0  0  0  0  0  0
   -0.9305   -7.4943   33.1348 C   0  0  0  0  0  0  0  0  0  0  0  0
   -0.5623   -7.6001   31.8237 C   0  0  0  0  0  0  0  0  0  0  0  0
   -1.1058   -8.5588   31.0294 O   0  0  0  0  0  0  0  0  0  0  0  0
    0.3691   -6.8601   31.2147 N   0  0  0  0  0  0  0  0  0  0  0  0
    0.9197   -5.8962   31.9776 C   0  0  0  0  0  0  0  0  0  0  0  0
    1.8814   -4.9286   31.3292 C   0  0  0  0  0  0  0  0  0  0  0  0
    1.3388   -4.3933   29.9876 C   0  0  0  0  0  0  0  0  0  0  0  0
    2.1223   -4.7466   28.7902 N   0  0  0  0  0  0  0  0  0  0  0  0
    3.4708   -4.2515   28.4411 C   0  0  0  0  0  0  0  0  0  0  0  0
    4.2998   -3.1730   29.2671 C   0  0  0  0  0  0  0  0  0  0  0  0
    5.4665   -3.8316   29.8828 C   0  0  0  0  0  0  0  0  0  0  0  0
    6.7161   -3.1053   30.7430 S   0  0  0  0  0  0  0  0  0  0  0  0
    7.5470   -4.6060   30.8689 C   0  0  0  0  0  0  0  0  0  0  0  0
    6.8542   -5.6334   30.2609 C   0  0  0  0  0  0  0  0  0  0  0  0
    5.6285   -5.1700   29.7054 C   0  0  0  0  0  0  0  0  0  0  0  0
    4.5482   -5.8780   28.9723 C   0  0  0  0  0  0  0  0  0  0  0  0
    4.2358   -5.3602   27.6054 N   0  0  0  0  0  0  0  0  0  0  0  0
    5.4481   -5.2794   26.8191 C   0  0  0  0  0  0  0  0  0  0  0  0
    6.2274   -4.3732   26.6765 O   0  0  0  0  0  0  0  0  0  0  0  0
    5.7213   -6.6785   26.1912 C   0  0  0  0  0  0  0  0  0  0  0  0
    6.4704   -6.5892   24.5855 S   0  0  0  0  0  0  0  0  0  0  0  0
    6.8848   -7.5668   27.2405 Cl  0  0  0  0  0  0  0  0  0  0  0  0
    0.9803   -2.9708   30.0419 N   0  0  0  0  0  0  0  0  0  0  0  0
   -0.3043   -2.5962   31.0897 S   0  0  0  0  0  0  0  0  0  0  0  0
    0.2599   -2.4439   32.4067 O   0  0  0  0  0  0  0  0  0  0  0  0
   -1.3980   -3.4994   30.8263 O   0  0  0  0  0  0  0  0  0  0  0  0
   -0.6914   -1.0796   30.5148 N   0  0  0  0  0  0  0  0  0  0  0  0
    0.1730    0.0589   30.9385 C   0  0  0  0  0  0  0  0  0  0  0  0
    0.3505    1.0852   29.8197 C   0  0  0  0  0  0  0  0  0  0  0  0
    0.8438    0.4344   28.6502 O   0  0  0  0  0  0  0  0  0  0  0  0
   -0.0654   -0.5615   28.1565 C   0  0  0  0  0  0  0  0  0  0  0  0
   -1.1810   -0.9794   29.1194 C   0  0  0  0  0  0  0  0  0  0  0  0
    0.6974   -5.7583   33.2949 N   0  0  0  0  0  0  0  0  0  0  0  0
    0.0834   -5.5478   35.7308 H   0  0  0  0  0  0  0  0  0  0  0  0
   -0.1675   -7.2994   35.8607 H   0  0  0  0  0  0  0  0  0  0  0  0
   -1.5424   -6.2176   35.5267 H   0  0  0  0  0  0  0  0  0  0  0  0
   -1.6784   -8.1380   33.5726 H   0  0  0  0  0  0  0  0  0  0  0  0
   -0.4508   -8.5702   30.3089 H   0  0  0  0  0  0  0  0  0  0  0  0
    2.8163   -5.4630   31.2063 H   0  0  0  0  0  0  0  0  0  0  0  0
    2.1200   -4.1130   32.0205 H   0  0  0  0  0  0  0  0  0  0  0  0
    0.3918   -4.9032   29.7716 H   0  0  0  0  0  0  0  0  0  0  0  0
    1.5081   -4.5917   27.9915 H   0  0  0  0  0  0  0  0  0  0  0  0
    3.2018   -3.5996   27.5924 H   0  0  0  0  0  0  0  0  0  0  0  0
    3.6876   -2.6889   30.0281 H   0  0  0  0  0  0  0  0  0  0  0  0
    4.6466   -2.3896   28.5807 H   0  0  0  0  0  0  0  0  0  0  0  0
    8.5044   -4.6532   31.3700 H   0  0  0  0  0  0  0  0  0  0  0  0
    7.2235   -6.6516   30.2221 H   0  0  0  0  0  0  0  0  0  0  0  0
    4.9428   -6.8819   28.7895 H   0  0  0  0  0  0  0  0  0  0  0  0
    3.6724   -6.1542   29.5515 H   0  0  0  0  0  0  0  0  0  0  0  0
    4.8029   -7.2705   26.1406 H   0  0  0  0  0  0  0  0  0  0  0  0
    7.3169   -5.5879   24.8930 H   0  0  0  0  0  0  0  0  0  0  0  0
    1.7529   -2.3682   30.3106 H   0  0  0  0  0  0  0  0  0  0  0  0
    1.1665   -0.3114   31.2150 H   0  0  0  0  0  0  0  0  0  0  0  0
   -0.2733    0.5333   31.8183 H   0  0  0  0  0  0  0  0  0  0  0  0
    1.0819    1.8419   30.1204 H   0  0  0  0  0  0  0  0  0  0  0  0
   -0.5822    1.6062   29.5796 H   0  0  0  0  0  0  0  0  0  0  0  0
   -0.5181   -0.1653   27.2446 H   0  0  0  0  0  0  0  0  0  0  0  0
    0.5432   -1.4269   27.8867 H   0  0  0  0  0  0  0  0  0  0  0  0
   -1.6547   -1.9043   28.7765 H   0  0  0  0  0  0  0  0  0  0  0  0
   -1.9658   -0.2171   29.1163 H   0  0  0  0  0  0  0  0  0  0  0  0
  1  2  1  0
  2  3  2  0
  3  4  1  0
  4  5  1  0
  4  6  2  0
  6  7  1  0
  7  8  1  0
  8  9  1  0
  9 10  1  0
 10 11  1  0
 11 12  1  0
 12 13  1  0
 13 14  1  0
 14 15  1  0
 15 16  2  0
 16 17  1  0
 17 18  1  0
 18 19  1  0
 19 20  1  0
 20 21  2  0
 20 22  1  0
 22 23  1  0
 22 24  1  0
  9 25  1  0
 25 26  1  0
 26 27  2  0
 26 28  2  0
 26 29  1  0
 29 30  1  0
 30 31  1  0
 31 32  1  0
 32 33  1  0
 33 34  1  0
  7 35  2  0
 35  2  1  0
 19 11  1  0
 34 29  1  0
 17 13  2  0
  1 36  1  0
  1 37  1  0
  1 38  1  0
  3 39  1  0
  5 40  1  0
  8 41  1  0
  8 42  1  0
  9 43  1  0
 10 44  1  0
 11 45  1  0
 12 46  1  0
 12 47  1  0
 15 48  1  0
 16 49  1  0
 18 50  1  0
 18 51  1  0
 22 52  1  0
 23 53  1  0
 25 54  1  0
 30 55  1  0
 30 56  1  0
 31 57  1  0
 31 58  1  0
 33 59  1  0
 33 60  1  0
 34 61  1  0
 34 62  1  0
M  END
>  <Energy>  (306) 
-103.46684841054282

>  <compound_id>  (306) 
350

>  <target_id>  (306) 
1

>  <reference_id>  (306) 
202

>  <inspiration_ids>  (306) 
[202, 155]

>  <energy_score>  (306) 
-37.554884072614215

>  <distance_score>  (306) 
2.8992513098788733

>  <path>  (306) 
/opt/xchem-fragalysis-2/maxwin/BulkDock/SCRATCH/505737/C350-P202/C350-P202.minimised.mol

>  <scratch_subdir>  (306) 
/opt/xchem-fragalysis-2/maxwin/BulkDock/SCRATCH/505737/C350-P202

>  <fragmenstein_runtime>  (306) 
24.21412205696106

>  <fragmenstein_outcome>  (306) 
too moved

>  <fragmenstein_mode>  (306) 
expansion

>  <fragmenstein_error>  (306) 


$$$$
C350-P155
     RDKit          3D

 62 65  0  0  0  0  0  0  0  0999 V2000
   -0.7093   -6.1660   35.0723 C   0  0  0  0  0  0  0  0  0  0  0  0
   -0.5845   -6.4802   33.6127 C   0  0  0  0  0  0  0  0  0  0  0  0
   -1.2113   -7.5809   33.0773 C   0  0  0  0  0  0  0  0  0  0  0  0
   -0.9131   -7.8465   31.7710 C   0  0  0  0  0  0  0  0  0  0  0  0
   -1.3325   -8.9867   31.1724 O   0  0  0  0  0  0  0  0  0  0  0  0
   -0.1213   -7.1135   30.9953 N   0  0  0  0  0  0  0  0  0  0  0  0
    0.3828   -6.0122   31.5796 C   0  0  0  0  0  0  0  0  0  0  0  0
    1.3151   -5.2117   30.7246 C   0  0  0  0  0  0  0  0  0  0  0  0
    1.8324   -3.8804   31.2724 C   0  0  0  0  0  0  0  0  0  0  0  0
    3.2635   -3.6725   31.0251 N   0  0  0  0  0  0  0  0  0  0  0  0
    3.8816   -3.5235   29.6841 C   0  0  0  0  0  0  0  0  0  0  0  0
    3.6623   -4.8319   28.8315 C   0  0  0  0  0  0  0  0  0  0  0  0
    4.7492   -4.9894   27.8605 C   0  0  0  0  0  0  0  0  0  0  0  0
    5.0265   -6.3228   26.8736 S   0  0  0  0  0  0  0  0  0  0  0  0
    6.5161   -5.6493   26.3570 C   0  0  0  0  0  0  0  0  0  0  0  0
    6.7660   -4.4206   26.9427 C   0  0  0  0  0  0  0  0  0  0  0  0
    5.7172   -4.0358   27.8179 C   0  0  0  0  0  0  0  0  0  0  0  0
    5.5349   -2.8467   28.7080 C   0  0  0  0  0  0  0  0  0  0  0  0
    5.3053   -3.1939   30.2018 N   0  0  0  0  0  0  0  0  0  0  0  0
    6.3600   -4.0616   30.6741 C   0  0  0  0  0  0  0  0  0  0  0  0
    6.4322   -5.2639   30.6986 O   0  0  0  0  0  0  0  0  0  0  0  0
    7.4882   -3.1795   31.2478 C   0  0  0  0  0  0  0  0  0  0  0  0
    7.6902   -3.4747   33.0250 S   0  0  0  0  0  0  0  0  0  0  0  0
    9.0004   -3.5293   30.3772 Cl  0  0  0  0  0  0  0  0  0  0  0  0
    1.0858   -2.7290   30.7603 N   0  0  0  0  0  0  0  0  0  0  0  0
   -0.4515   -2.5089   31.4244 S   0  0  0  0  0  0  0  0  0  0  0  0
   -0.2748   -2.1275   32.8035 O   0  0  0  0  0  0  0  0  0  0  0  0
   -1.3077   -3.5977   31.0232 O   0  0  0  0  0  0  0  0  0  0  0  0
   -0.9086   -1.1436   30.5638 N   0  0  0  0  0  0  0  0  0  0  0  0
   -0.2883    0.1514   30.9633 C   0  0  0  0  0  0  0  0  0  0  0  0
    0.3123    0.8938   29.7687 C   0  0  0  0  0  0  0  0  0  0  0  0
    1.0802   -0.0249   28.9877 O   0  0  0  0  0  0  0  0  0  0  0  0
    0.2182   -0.9762   28.3331 C   0  0  0  0  0  0  0  0  0  0  0  0
   -1.0800   -1.2959   29.0932 C   0  0  0  0  0  0  0  0  0  0  0  0
    0.2327   -5.6978   32.8770 N   0  0  0  0  0  0  0  0  0  0  0  0
   -1.7256   -6.3539   35.4276 H   0  0  0  0  0  0  0  0  0  0  0  0
   -0.4744   -5.1137   35.2612 H   0  0  0  0  0  0  0  0  0  0  0  0
   -0.0154   -6.7880   35.6460 H   0  0  0  0  0  0  0  0  0  0  0  0
   -1.8472   -8.2273   33.6613 H   0  0  0  0  0  0  0  0  0  0  0  0
   -0.5932   -9.1452   30.5544 H   0  0  0  0  0  0  0  0  0  0  0  0
    0.8660   -5.0777   29.7345 H   0  0  0  0  0  0  0  0  0  0  0  0
    2.1516   -5.8968   30.6249 H   0  0  0  0  0  0  0  0  0  0  0  0
    1.7622   -3.8716   32.3659 H   0  0  0  0  0  0  0  0  0  0  0  0
    3.6089   -2.9179   31.6113 H   0  0  0  0  0  0  0  0  0  0  0  0
    3.3701   -2.6506   29.2500 H   0  0  0  0  0  0  0  0  0  0  0  0
    3.6864   -5.7221   29.4511 H   0  0  0  0  0  0  0  0  0  0  0  0
    2.6941   -4.7704   28.3295 H   0  0  0  0  0  0  0  0  0  0  0  0
    7.1333   -6.1760   25.6409 H   0  0  0  0  0  0  0  0  0  0  0  0
    7.6640   -3.8498   26.7368 H   0  0  0  0  0  0  0  0  0  0  0  0
    6.5151   -2.3445   28.7214 H   0  0  0  0  0  0  0  0  0  0  0  0
    4.8866   -2.0577   28.2962 H   0  0  0  0  0  0  0  0  0  0  0  0
    7.2742   -2.1170   31.1012 H   0  0  0  0  0  0  0  0  0  0  0  0
    8.9370   -2.9896   33.0943 H   0  0  0  0  0  0  0  0  0  0  0  0
    1.6127   -1.8791   30.9448 H   0  0  0  0  0  0  0  0  0  0  0  0
    0.5166   -0.0194   31.6866 H   0  0  0  0  0  0  0  0  0  0  0  0
   -1.0418    0.7650   31.4632 H   0  0  0  0  0  0  0  0  0  0  0  0
    0.9787    1.6883   30.1192 H   0  0  0  0  0  0  0  0  0  0  0  0
   -0.4570    1.3622   29.1432 H   0  0  0  0  0  0  0  0  0  0  0  0
   -0.0308   -0.5622   27.3550 H   0  0  0  0  0  0  0  0  0  0  0  0
    0.8059   -1.8843   28.1671 H   0  0  0  0  0  0  0  0  0  0  0  0
   -1.4569   -2.2851   28.8184 H   0  0  0  0  0  0  0  0  0  0  0  0
   -1.8626   -0.5905   28.7876 H   0  0  0  0  0  0  0  0  0  0  0  0
  1  2  1  0
  2  3  2  0
  3  4  1  0
  4  5  1  0
  4  6  2  0
  6  7  1  0
  7  8  1  0
  8  9  1  0
  9 10  1  0
 10 11  1  0
 11 12  1  0
 12 13  1  0
 13 14  1  0
 14 15  1  0
 15 16  2  0
 16 17  1  0
 17 18  1  0
 18 19  1  0
 19 20  1  0
 20 21  2  0
 20 22  1  0
 22 23  1  0
 22 24  1  0
  9 25  1  0
 25 26  1  0
 26 27  2  0
 26 28  2  0
 26 29  1  0
 29 30  1  0
 30 31  1  0
 31 32  1  0
 32 33  1  0
 33 34  1  0
  7 35  2  0
 35  2  1  0
 19 11  1  0
 34 29  1  0
 17 13  2  0
  1 36  1  0
  1 37  1  0
  1 38  1  0
  3 39  1  0
  5 40  1  0
  8 41  1  0
  8 42  1  0
  9 43  1  0
 10 44  1  0
 11 45  1  0
 12 46  1  0
 12 47  1  0
 15 48  1  0
 16 49  1  0
 18 50  1  0
 18 51  1  0
 22 52  1  0
 23 53  1  0
 25 54  1  0
 30 55  1  0
 30 56  1  0
 31 57  1  0
 31 58  1  0
 33 59  1  0
 33 60  1  0
 34 61  1  0
 34 62  1  0
M  END
>  <Energy>  (307) 
-112.3755965072879

>  <compound_id>  (307) 
350

>  <target_id>  (307) 
1

>  <reference_id>  (307) 
155

>  <inspiration_ids>  (307) 
[202, 155]

>  <energy_score>  (307) 
-46.463632169358604

>  <distance_score>  (307) 
3.543994611082394

>  <path>  (307) 
/opt/xchem-fragalysis-2/maxwin/BulkDock/SCRATCH/505737/C350-P155/C350-P155.minimised.mol

>  <scratch_subdir>  (307) 
/opt/xchem-fragalysis-2/maxwin/BulkDock/SCRATCH/505737/C350-P155

>  <fragmenstein_runtime>  (307) 
32.083325147628784

>  <fragmenstein_outcome>  (307) 
too moved

>  <fragmenstein_mode>  (307) 
expansion

>  <fragmenstein_error>  (307) 


$$$$
C351-P202
     RDKit          3D

 46 49  0  0  0  0  0  0  0  0999 V2000
    0.8359   -2.0755   33.3147 N   0  0  0  0  0  0  0  0  0  0  0  0
   -0.5869   -1.2150   33.3591 S   0  0  0  0  0  0  0  0  0  0  0  0
   -0.4460   -0.3127   34.4653 O   0  0  0  0  0  0  0  0  0  0  0  0
   -1.6810   -2.1562   33.2919 O   0  0  0  0  0  0  0  0  0  0  0  0
   -0.5191   -0.3501   31.9348 N   0  0  0  0  0  0  0  0  0  0  0  0
    0.7545    0.1854   31.4001 C   0  0  0  0  0  0  0  0  0  0  0  0
    1.4259   -0.7672   30.3632 C   0  0  0  0  0  0  0  0  0  0  0  0
    0.5663   -1.6132   29.4841 N   0  0  0  0  0  0  0  0  0  0  0  0
    0.1207   -0.8804   28.4015 F   0  0  0  0  0  0  0  0  0  0  0  0
   -0.5536   -2.1486   30.2565 C   0  0  0  0  0  0  0  0  0  0  0  0
   -1.6401   -2.9778   29.6399 C   0  0  0  0  0  0  0  0  0  0  0  0
   -2.1746   -3.6304   30.8995 N   0  0  0  0  0  0  0  0  0  0  0  0
   -0.9758   -4.2789   31.3600 C   0  0  0  0  0  0  0  0  0  0  0  0
   -0.9680   -5.1329   32.7370 C   0  0  0  0  0  0  0  0  0  0  0  0
   -0.1732   -6.3867   32.4842 C   0  0  0  0  0  0  0  0  0  0  0  0
   -0.6306   -7.5026   31.9228 N   0  0  0  0  0  0  0  0  0  0  0  0
    0.0776   -7.5485   30.7526 C   0  0  0  0  0  0  0  0  0  0  0  0
   -0.1261   -8.4061   29.7521 O   0  0  0  0  0  0  0  0  0  0  0  0
    1.0328   -6.5569   30.7119 C   0  0  0  0  0  0  0  0  0  0  0  0
    1.9092   -5.9223   29.7919 C   0  0  0  0  0  0  0  0  0  0  0  0
    2.7886   -5.0075   30.2491 C   0  0  0  0  0  0  0  0  0  0  0  0
    2.8974   -4.6792   31.6681 C   0  0  0  0  0  0  0  0  0  0  0  0
    2.0447   -5.2535   32.5308 C   0  0  0  0  0  0  0  0  0  0  0  0
    1.0961   -6.1371   32.0305 N   0  0  0  0  0  0  0  0  0  0  0  0
    0.0256   -3.2019   31.1764 N   0  0  0  0  0  0  0  0  0  0  0  0
   -1.3036   -0.9094   30.8376 C   0  0  0  0  0  0  0  0  0  0  0  0
    0.7326   -2.7506   32.5479 H   0  0  0  0  0  0  0  0  0  0  0  0
    0.9591   -2.5339   34.2148 H   0  0  0  0  0  0  0  0  0  0  0  0
    1.4505    0.4232   32.2115 H   0  0  0  0  0  0  0  0  0  0  0  0
    0.5219    1.1371   30.9052 H   0  0  0  0  0  0  0  0  0  0  0  0
    2.0905   -1.4453   30.9126 H   0  0  0  0  0  0  0  0  0  0  0  0
    2.0963   -0.1778   29.7262 H   0  0  0  0  0  0  0  0  0  0  0  0
   -1.2482   -3.7240   28.9351 H   0  0  0  0  0  0  0  0  0  0  0  0
   -2.3623   -2.3876   29.0892 H   0  0  0  0  0  0  0  0  0  0  0  0
   -2.4243   -2.9554   31.6301 H   0  0  0  0  0  0  0  0  0  0  0  0
   -0.7946   -5.0075   30.5705 H   0  0  0  0  0  0  0  0  0  0  0  0
   -1.9423   -5.4794   33.0207 H   0  0  0  0  0  0  0  0  0  0  0  0
   -0.5643   -4.5521   33.5702 H   0  0  0  0  0  0  0  0  0  0  0  0
   -0.3904   -9.2553   30.1506 H   0  0  0  0  0  0  0  0  0  0  0  0
    1.8760   -6.1804   28.7416 H   0  0  0  0  0  0  0  0  0  0  0  0
    3.4687   -4.5053   29.5653 H   0  0  0  0  0  0  0  0  0  0  0  0
    3.6381   -3.9516   31.9847 H   0  0  0  0  0  0  0  0  0  0  0  0
    2.0055   -5.0086   33.5847 H   0  0  0  0  0  0  0  0  0  0  0  0
    0.7518   -3.6147   30.5851 H   0  0  0  0  0  0  0  0  0  0  0  0
   -1.4451   -0.1402   30.0632 H   0  0  0  0  0  0  0  0  0  0  0  0
   -2.3282   -1.0829   31.1821 H   0  0  0  0  0  0  0  0  0  0  0  0
  1  2  1  0
  2  3  2  0
  2  4  2  0
  2  5  1  0
  5  6  1  0
  6  7  1  0
  7  8  1  0
  8  9  1  0
  8 10  1  0
 10 11  1  0
 11 12  1  0
 12 13  1  0
 13 14  1  0
 14 15  1  0
 15 16  2  0
 16 17  1  0
 17 18  1  0
 17 19  2  0
 19 20  1  0
 20 21  2  0
 21 22  1  0
 22 23  2  0
 23 24  1  0
 13 25  1  0
 10 26  1  0
 26  5  1  0
 25 10  1  0
 24 15  1  0
 24 19  1  0
  1 27  1  0
  1 28  1  0
  6 29  1  0
  6 30  1  0
  7 31  1  0
  7 32  1  0
 11 33  1  0
 11 34  1  0
 12 35  1  0
 13 36  1  0
 14 37  1  0
 14 38  1  0
 18 39  1  0
 20 40  1  0
 21 41  1  0
 22 42  1  0
 23 43  1  0
 25 44  1  0
 26 45  1  0
 26 46  1  0
M  END
>  <Energy>  (308) 
-93.746721959083644

>  <compound_id>  (308) 
351

>  <target_id>  (308) 
1

>  <reference_id>  (308) 
202

>  <inspiration_ids>  (308) 
[202, 156]

>  <energy_score>  (308) 
-25.445160086550985

>  <distance_score>  (308) 
1.9967048226338626

>  <path>  (308) 
/opt/xchem-fragalysis-2/maxwin/BulkDock/SCRATCH/505737/C351-P202/C351-P202.minimised.mol

>  <scratch_subdir>  (308) 
/opt/xchem-fragalysis-2/maxwin/BulkDock/SCRATCH/505737/C351-P202

>  <fragmenstein_runtime>  (308) 
4.714576482772827

>  <fragmenstein_outcome>  (308) 
too moved

>  <fragmenstein_mode>  (308) 
expansion

>  <fragmenstein_error>  (308) 


$$$$
C351-P156
     RDKit          3D

 46 49  0  0  0  0  0  0  0  0999 V2000
    1.6539   -2.2701   33.0064 N   0  0  0  0  0  0  0  0  0  0  0  0
    0.5074   -1.2348   33.6249 S   0  0  0  0  0  0  0  0  0  0  0  0
    1.2017   -0.3917   34.5504 O   0  0  0  0  0  0  0  0  0  0  0  0
   -0.6309   -2.0211   34.0403 O   0  0  0  0  0  0  0  0  0  0  0  0
    0.0879   -0.3414   32.2882 N   0  0  0  0  0  0  0  0  0  0  0  0
    1.0658    0.0137   31.2334 C   0  0  0  0  0  0  0  0  0  0  0  0
    1.1073   -1.0257   30.0758 C   0  0  0  0  0  0  0  0  0  0  0  0
   -0.1548   -1.7220   29.7072 N   0  0  0  0  0  0  0  0  0  0  0  0
   -0.9215   -0.9194   28.8839 F   0  0  0  0  0  0  0  0  0  0  0  0
   -0.8970   -2.1003   30.9153 C   0  0  0  0  0  0  0  0  0  0  0  0
   -2.2678   -2.6845   30.8046 C   0  0  0  0  0  0  0  0  0  0  0  0
   -2.4466   -3.5041   32.0159 N   0  0  0  0  0  0  0  0  0  0  0  0
   -1.1748   -4.1796   32.1540 C   0  0  0  0  0  0  0  0  0  0  0  0
   -0.8115   -4.8275   33.5964 C   0  0  0  0  0  0  0  0  0  0  0  0
   -0.5420   -6.2910   33.4120 C   0  0  0  0  0  0  0  0  0  0  0  0
   -1.4156   -7.2887   33.3815 N   0  0  0  0  0  0  0  0  0  0  0  0
   -1.1734   -7.8636   32.1691 C   0  0  0  0  0  0  0  0  0  0  0  0
   -1.9894   -8.7170   31.5548 O   0  0  0  0  0  0  0  0  0  0  0  0
   -0.1141   -7.2537   31.5515 C   0  0  0  0  0  0  0  0  0  0  0  0
    0.3570   -7.0520   30.2431 C   0  0  0  0  0  0  0  0  0  0  0  0
    1.3472   -6.1559   30.0300 C   0  0  0  0  0  0  0  0  0  0  0  0
    2.0718   -5.5320   31.1304 C   0  0  0  0  0  0  0  0  0  0  0  0
    1.6512   -5.7713   32.3804 C   0  0  0  0  0  0  0  0  0  0  0  0
    0.5000   -6.5389   32.5518 N   0  0  0  0  0  0  0  0  0  0  0  0
   -0.1871   -3.2689   31.5231 N   0  0  0  0  0  0  0  0  0  0  0  0
   -1.1539   -0.7837   31.6868 C   0  0  0  0  0  0  0  0  0  0  0  0
    1.1418   -2.9341   32.4128 H   0  0  0  0  0  0  0  0  0  0  0  0
    2.1249   -2.7270   33.7839 H   0  0  0  0  0  0  0  0  0  0  0  0
    2.0641    0.1580   31.6599 H   0  0  0  0  0  0  0  0  0  0  0  0
    0.7613    0.9858   30.8247 H   0  0  0  0  0  0  0  0  0  0  0  0
    1.8408   -1.7985   30.3359 H   0  0  0  0  0  0  0  0  0  0  0  0
    1.5149   -0.5434   29.1793 H   0  0  0  0  0  0  0  0  0  0  0  0
   -2.3397   -3.2397   29.8726 H   0  0  0  0  0  0  0  0  0  0  0  0
   -3.0128   -1.9084   30.8735 H   0  0  0  0  0  0  0  0  0  0  0  0
   -2.5409   -2.9201   32.8569 H   0  0  0  0  0  0  0  0  0  0  0  0
   -1.2770   -5.0042   31.4498 H   0  0  0  0  0  0  0  0  0  0  0  0
   -1.5314   -4.6475   34.3783 H   0  0  0  0  0  0  0  0  0  0  0  0
    0.0963   -4.3574   33.9892 H   0  0  0  0  0  0  0  0  0  0  0  0
   -2.7208   -8.9327   32.1699 H   0  0  0  0  0  0  0  0  0  0  0  0
   -0.1852   -7.5761   29.4734 H   0  0  0  0  0  0  0  0  0  0  0  0
    1.7044   -5.9250   29.0330 H   0  0  0  0  0  0  0  0  0  0  0  0
    2.9176   -4.8879   30.9131 H   0  0  0  0  0  0  0  0  0  0  0  0
    2.0863   -5.3029   33.2536 H   0  0  0  0  0  0  0  0  0  0  0  0
    0.1432   -3.7749   30.6933 H   0  0  0  0  0  0  0  0  0  0  0  0
   -1.5352    0.0040   31.0193 H   0  0  0  0  0  0  0  0  0  0  0  0
   -1.9318   -0.8472   32.4586 H   0  0  0  0  0  0  0  0  0  0  0  0
  1  2  1  0
  2  3  2  0
  2  4  2  0
  2  5  1  0
  5  6  1  0
  6  7  1  0
  7  8  1  0
  8  9  1  0
  8 10  1  0
 10 11  1  0
 11 12  1  0
 12 13  1  0
 13 14  1  0
 14 15  1  0
 15 16  2  0
 16 17  1  0
 17 18  1  0
 17 19  2  0
 19 20  1  0
 20 21  2  0
 21 22  1  0
 22 23  2  0
 23 24  1  0
 13 25  1  0
 10 26  1  0
 26  5  1  0
 25 10  1  0
 24 15  1  0
 24 19  1  0
  1 27  1  0
  1 28  1  0
  6 29  1  0
  6 30  1  0
  7 31  1  0
  7 32  1  0
 11 33  1  0
 11 34  1  0
 12 35  1  0
 13 36  1  0
 14 37  1  0
 14 38  1  0
 18 39  1  0
 20 40  1  0
 21 41  1  0
 22 42  1  0
 23 43  1  0
 25 44  1  0
 26 45  1  0
 26 46  1  0
M  END
>  <Energy>  (309) 
-98.951755255382707

>  <compound_id>  (309) 
351

>  <target_id>  (309) 
1

>  <reference_id>  (309) 
156

>  <inspiration_ids>  (309) 
[202, 156]

>  <energy_score>  (309) 
-30.65019338285083

>  <distance_score>  (309) 
2.0474629855907653

>  <path>  (309) 
/opt/xchem-fragalysis-2/maxwin/BulkDock/SCRATCH/505737/C351-P156/C351-P156.minimised.mol

>  <scratch_subdir>  (309) 
/opt/xchem-fragalysis-2/maxwin/BulkDock/SCRATCH/505737/C351-P156

>  <fragmenstein_runtime>  (309) 
3.9110002517700195

>  <fragmenstein_outcome>  (309) 
too moved

>  <fragmenstein_mode>  (309) 
expansion

>  <fragmenstein_error>  (309) 


$$$$
C352-P202
     RDKit          3D

 27 28  0  0  0  0  0  0  0  0999 V2000
    2.5023   -0.9984   33.8016 O   0  0  0  0  0  0  0  0  0  0  0  0
    2.9634   -2.3198   34.2114 N   0  0  0  0  0  0  0  0  0  0  0  0
    2.1908   -3.2850   33.4501 C   0  0  0  0  0  0  0  0  0  0  0  0
    2.4014   -3.0206   32.0788 O   0  0  0  0  0  0  0  0  0  0  0  0
    0.8259   -3.1744   33.8571 O   0  0  0  0  0  0  0  0  0  0  0  0
    0.1537   -4.3239   33.6027 C   0  0  0  0  0  0  0  0  0  0  0  0
   -0.2662   -5.1466   34.6621 C   0  0  0  0  0  0  0  0  0  0  0  0
   -0.7743   -6.4168   34.3892 C   0  0  0  0  0  0  0  0  0  0  0  0
   -0.7688   -6.8113   33.0704 C   0  0  0  0  0  0  0  0  0  0  0  0
   -0.4007   -5.9342   32.0523 C   0  0  0  0  0  0  0  0  0  0  0  0
   -0.0220   -4.6606   32.2806 C   0  0  0  0  0  0  0  0  0  0  0  0
   -0.2814   -6.6214   30.7622 C   0  0  0  0  0  0  0  0  0  0  0  0
   -0.3316   -8.0191   31.3031 C   0  0  0  0  0  0  0  0  0  0  0  0
   -0.8151   -8.8661   30.3172 O   0  0  0  0  0  0  0  0  0  0  0  0
   -1.1346   -8.0508   32.5158 N   0  0  0  0  0  0  0  0  0  0  0  0
    3.3297   -0.4763   33.8154 H   0  0  0  0  0  0  0  0  0  0  0  0
    2.5897   -2.3804   35.1619 H   0  0  0  0  0  0  0  0  0  0  0  0
    2.5883   -4.2831   33.6761 H   0  0  0  0  0  0  0  0  0  0  0  0
    2.5273   -2.0575   32.1083 H   0  0  0  0  0  0  0  0  0  0  0  0
   -0.1711   -4.8029   35.6876 H   0  0  0  0  0  0  0  0  0  0  0  0
   -1.0967   -7.0800   35.1816 H   0  0  0  0  0  0  0  0  0  0  0  0
    0.2725   -4.0020   31.4718 H   0  0  0  0  0  0  0  0  0  0  0  0
    0.6738   -6.4244   30.2637 H   0  0  0  0  0  0  0  0  0  0  0  0
   -1.0803   -6.4315   30.0707 H   0  0  0  0  0  0  0  0  0  0  0  0
    0.6875   -8.2570   31.5393 H   0  0  0  0  0  0  0  0  0  0  0  0
   -0.3519   -9.7183   30.4315 H   0  0  0  0  0  0  0  0  0  0  0  0
   -1.0133   -8.8333   33.1518 H   0  0  0  0  0  0  0  0  0  0  0  0
  1  2  1  0
  2  3  1  0
  3  4  1  0
  3  5  1  0
  5  6  1  0
  6  7  2  0
  7  8  1  0
  8  9  2  0
  9 10  1  0
 10 11  2  0
 10 12  1  0
 12 13  1  0
 13 14  1  0
 13 15  1  0
 11  6  1  0
 15  9  1  0
  1 16  1  0
  2 17  1  0
  3 18  1  0
  4 19  1  0
  7 20  1  0
  8 21  1  0
 11 22  1  0
 12 23  1  0
 12 24  1  0
 13 25  1  0
 14 26  1  0
 15 27  1  0
M  END
>  <Energy>  (310) 
-19.168906653292044

>  <compound_id>  (310) 
352

>  <target_id>  (310) 
1

>  <reference_id>  (310) 
202

>  <inspiration_ids>  (310) 
[202, 157]

>  <energy_score>  (310) 
-22.42160205740224

>  <distance_score>  (310) 
2.524956706969343

>  <path>  (310) 
/opt/xchem-fragalysis-2/maxwin/BulkDock/SCRATCH/505737/C352-P202/C352-P202.minimised.mol

>  <scratch_subdir>  (310) 
/opt/xchem-fragalysis-2/maxwin/BulkDock/SCRATCH/505737/C352-P202

>  <fragmenstein_runtime>  (310) 
2.003237009048462

>  <fragmenstein_outcome>  (310) 
too moved

>  <fragmenstein_mode>  (310) 
expansion

>  <fragmenstein_error>  (310) 


$$$$
C352-P157
     RDKit          3D

 27 28  0  0  0  0  0  0  0  0999 V2000
    2.7658   -1.3316   33.6663 O   0  0  0  0  0  0  0  0  0  0  0  0
    1.5674   -1.8652   34.2849 N   0  0  0  0  0  0  0  0  0  0  0  0
    1.1119   -2.9972   33.4988 C   0  0  0  0  0  0  0  0  0  0  0  0
    1.3097   -2.7120   32.1247 O   0  0  0  0  0  0  0  0  0  0  0  0
   -0.2788   -3.2028   33.7961 O   0  0  0  0  0  0  0  0  0  0  0  0
   -0.5574   -4.5358   34.0166 C   0  0  0  0  0  0  0  0  0  0  0  0
    0.0865   -5.2149   35.0581 C   0  0  0  0  0  0  0  0  0  0  0  0
    0.6398   -6.4416   34.7504 C   0  0  0  0  0  0  0  0  0  0  0  0
    0.5513   -6.7682   33.4007 C   0  0  0  0  0  0  0  0  0  0  0  0
   -0.5121   -6.3771   32.5694 C   0  0  0  0  0  0  0  0  0  0  0  0
   -1.1027   -5.1847   32.9089 C   0  0  0  0  0  0  0  0  0  0  0  0
   -0.0936   -6.5944   31.1393 C   0  0  0  0  0  0  0  0  0  0  0  0
    1.2847   -6.0003   31.3809 C   0  0  0  0  0  0  0  0  0  0  0  0
    2.1429   -6.0571   30.2758 O   0  0  0  0  0  0  0  0  0  0  0  0
    1.8115   -6.6787   32.5933 N   0  0  0  0  0  0  0  0  0  0  0  0
    3.3748   -1.2586   34.4299 H   0  0  0  0  0  0  0  0  0  0  0  0
    0.8707   -1.1270   34.1597 H   0  0  0  0  0  0  0  0  0  0  0  0
    1.7521   -3.8498   33.7455 H   0  0  0  0  0  0  0  0  0  0  0  0
    1.7155   -1.8286   32.1718 H   0  0  0  0  0  0  0  0  0  0  0  0
    0.3896   -4.6902   35.9597 H   0  0  0  0  0  0  0  0  0  0  0  0
    1.4009   -6.8670   35.3954 H   0  0  0  0  0  0  0  0  0  0  0  0
   -1.5356   -4.5610   32.1300 H   0  0  0  0  0  0  0  0  0  0  0  0
   -0.6615   -6.0385   30.3954 H   0  0  0  0  0  0  0  0  0  0  0  0
   -0.0667   -7.6549   30.8690 H   0  0  0  0  0  0  0  0  0  0  0  0
    1.2145   -4.9348   31.5970 H   0  0  0  0  0  0  0  0  0  0  0  0
    1.8635   -5.3438   29.6764 H   0  0  0  0  0  0  0  0  0  0  0  0
    2.4386   -6.0312   33.0672 H   0  0  0  0  0  0  0  0  0  0  0  0
  1  2  1  0
  2  3  1  0
  3  4  1  0
  3  5  1  0
  5  6  1  0
  6  7  2  0
  7  8  1  0
  8  9  2  0
  9 10  1  0
 10 11  2  0
 10 12  1  0
 12 13  1  0
 13 14  1  0
 13 15  1  0
 11  6  1  0
 15  9  1  0
  1 16  1  0
  2 17  1  0
  3 18  1  0
  4 19  1  0
  7 20  1  0
  8 21  1  0
 11 22  1  0
 12 23  1  0
 12 24  1  0
 13 25  1  0
 14 26  1  0
 15 27  1  0
M  END
>  <Energy>  (311) 
46.966009398702546

>  <compound_id>  (311) 
352

>  <target_id>  (311) 
1

>  <reference_id>  (311) 
157

>  <inspiration_ids>  (311) 
[202, 157]

>  <energy_score>  (311) 
43.713313994590635

>  <distance_score>  (311) 
1.9959841815875308

>  <path>  (311) 
/opt/xchem-fragalysis-2/maxwin/BulkDock/SCRATCH/505737/C352-P157/C352-P157.minimised.mol

>  <scratch_subdir>  (311) 
/opt/xchem-fragalysis-2/maxwin/BulkDock/SCRATCH/505737/C352-P157

>  <fragmenstein_runtime>  (311) 
1.6245181560516357

>  <fragmenstein_outcome>  (311) 
too moved

>  <fragmenstein_mode>  (311) 
expansion

>  <fragmenstein_error>  (311) 


$$$$
C358-P202
     RDKit          3D

 44 45  0  0  0  0  0  0  0  0999 V2000
   -0.4582   -6.7188   35.7054 C   0  0  0  0  0  0  0  0  0  0  0  0
   -0.3460   -6.9261   34.2274 C   0  0  0  0  0  0  0  0  0  0  0  0
   -1.2636   -7.6964   33.5509 C   0  0  0  0  0  0  0  0  0  0  0  0
   -1.0614   -7.8348   32.2000 C   0  0  0  0  0  0  0  0  0  0  0  0
   -1.9118   -8.5694   31.4247 O   0  0  0  0  0  0  0  0  0  0  0  0
   -0.0586   -7.2580   31.5310 N   0  0  0  0  0  0  0  0  0  0  0  0
    0.7512   -6.4747   32.2610 C   0  0  0  0  0  0  0  0  0  0  0  0
    1.7050   -5.5530   31.5536 C   0  0  0  0  0  0  0  0  0  0  0  0
    0.9993   -4.2768   31.0784 C   0  0  0  0  0  0  0  0  0  0  0  0
    0.1050   -4.6197   29.9015 C   0  0  0  0  0  0  0  0  0  0  0  0
    0.3613   -3.5840   32.2309 N   0  0  0  0  0  0  0  0  0  0  0  0
   -1.0154   -2.6629   32.0802 S   0  0  0  0  0  0  0  0  0  0  0  0
   -1.1365   -1.8943   33.2943 O   0  0  0  0  0  0  0  0  0  0  0  0
   -2.0778   -3.5423   31.6449 O   0  0  0  0  0  0  0  0  0  0  0  0
   -0.5471   -1.6575   30.8619 N   0  0  0  0  0  0  0  0  0  0  0  0
    0.5411   -0.6894   31.0791 C   0  0  0  0  0  0  0  0  0  0  0  0
    0.9730   -0.0078   29.7631 C   0  0  0  0  0  0  0  0  0  0  0  0
    0.7571   -0.7896   28.5279 N   0  0  0  0  0  0  0  0  0  0  0  0
    1.5956   -1.9958   28.5132 N   0  0  0  0  0  0  0  0  0  0  0  0
   -0.6704   -1.1650   28.4284 C   0  0  0  0  0  0  0  0  0  0  0  0
   -1.4426   -1.3482   29.7478 C   0  0  0  0  0  0  0  0  0  0  0  0
    0.6605   -6.3021   33.5932 N   0  0  0  0  0  0  0  0  0  0  0  0
    0.4153   -6.1836   36.0915 H   0  0  0  0  0  0  0  0  0  0  0  0
   -0.5171   -7.6826   36.2198 H   0  0  0  0  0  0  0  0  0  0  0  0
   -1.3493   -6.1282   35.9350 H   0  0  0  0  0  0  0  0  0  0  0  0
   -2.0770   -8.1765   34.0715 H   0  0  0  0  0  0  0  0  0  0  0  0
   -2.6049   -8.9577   31.9931 H   0  0  0  0  0  0  0  0  0  0  0  0
    2.5197   -5.2921   32.2407 H   0  0  0  0  0  0  0  0  0  0  0  0
    2.1580   -6.0578   30.6981 H   0  0  0  0  0  0  0  0  0  0  0  0
    1.7815   -3.6011   30.7142 H   0  0  0  0  0  0  0  0  0  0  0  0
   -0.6923   -5.2974   30.1893 H   0  0  0  0  0  0  0  0  0  0  0  0
   -0.3585   -3.7586   29.4331 H   0  0  0  0  0  0  0  0  0  0  0  0
    0.7021   -5.1065   29.1267 H   0  0  0  0  0  0  0  0  0  0  0  0
    0.2635   -4.1663   33.0694 H   0  0  0  0  0  0  0  0  0  0  0  0
    0.2226    0.0751   31.7962 H   0  0  0  0  0  0  0  0  0  0  0  0
    1.4093   -1.2096   31.4976 H   0  0  0  0  0  0  0  0  0  0  0  0
    2.0237    0.2999   29.8378 H   0  0  0  0  0  0  0  0  0  0  0  0
    0.4105    0.9305   29.6605 H   0  0  0  0  0  0  0  0  0  0  0  0
    2.5711   -1.7111   28.3847 H   0  0  0  0  0  0  0  0  0  0  0  0
    1.3843   -2.5330   27.6733 H   0  0  0  0  0  0  0  0  0  0  0  0
   -0.7853   -2.0789   27.8407 H   0  0  0  0  0  0  0  0  0  0  0  0
   -1.1843   -0.3911   27.8437 H   0  0  0  0  0  0  0  0  0  0  0  0
   -2.1382   -2.1724   29.5950 H   0  0  0  0  0  0  0  0  0  0  0  0
   -2.0066   -0.4411   29.9901 H   0  0  0  0  0  0  0  0  0  0  0  0
  1  2  1  0
  2  3  2  0
  3  4  1  0
  4  5  1  0
  4  6  2  0
  6  7  1  0
  7  8  1  0
  8  9  1  0
  9 10  1  0
  9 11  1  0
 11 12  1  0
 12 13  2  0
 12 14  2  0
 12 15  1  0
 15 16  1  0
 16 17  1  0
 17 18  1  0
 18 19  1  0
 18 20  1  0
 20 21  1  0
  7 22  2  0
 22  2  1  0
 21 15  1  0
  1 23  1  0
  1 24  1  0
  1 25  1  0
  3 26  1  0
  5 27  1  0
  8 28  1  0
  8 29  1  0
  9 30  1  0
 10 31  1  0
 10 32  1  0
 10 33  1  0
 11 34  1  0
 16 35  1  0
 16 36  1  0
 17 37  1  0
 17 38  1  0
 19 39  1  0
 19 40  1  0
 20 41  1  0
 20 42  1  0
 21 43  1  0
 21 44  1  0
M  END
>  <Energy>  (312) 
-108.31112969715913

>  <compound_id>  (312) 
358

>  <target_id>  (312) 
1

>  <reference_id>  (312) 
202

>  <inspiration_ids>  (312) 
[202, 177]

>  <energy_score>  (312) 
-42.23115292962324

>  <distance_score>  (312) 
1.519327456212857

>  <path>  (312) 
/opt/xchem-fragalysis-2/maxwin/BulkDock/SCRATCH/505737/C358-P202/C358-P202.minimised.mol

>  <scratch_subdir>  (312) 
/opt/xchem-fragalysis-2/maxwin/BulkDock/SCRATCH/505737/C358-P202

>  <fragmenstein_runtime>  (312) 
3.6580324172973633

>  <fragmenstein_outcome>  (312) 
too moved

>  <fragmenstein_mode>  (312) 
expansion

>  <fragmenstein_error>  (312) 


$$$$
C358-P177
     RDKit          3D

 44 45  0  0  0  0  0  0  0  0999 V2000
   -0.4621   -6.5679   35.8776 C   0  0  0  0  0  0  0  0  0  0  0  0
   -0.3569   -6.7026   34.3943 C   0  0  0  0  0  0  0  0  0  0  0  0
   -1.2659   -7.4504   33.6772 C   0  0  0  0  0  0  0  0  0  0  0  0
   -1.0469   -7.5436   32.3273 C   0  0  0  0  0  0  0  0  0  0  0  0
   -1.8628   -8.2477   31.4924 O   0  0  0  0  0  0  0  0  0  0  0  0
   -0.0349   -6.9357   31.7130 N   0  0  0  0  0  0  0  0  0  0  0  0
    0.7469   -6.1564   32.4740 C   0  0  0  0  0  0  0  0  0  0  0  0
    1.6930   -5.2113   31.8002 C   0  0  0  0  0  0  0  0  0  0  0  0
    0.9649   -4.1060   31.0452 C   0  0  0  0  0  0  0  0  0  0  0  0
    0.1211   -4.6861   29.9186 C   0  0  0  0  0  0  0  0  0  0  0  0
    0.2704   -3.2512   32.0422 N   0  0  0  0  0  0  0  0  0  0  0  0
   -1.0967   -2.3916   31.6745 S   0  0  0  0  0  0  0  0  0  0  0  0
   -1.2331   -1.3844   32.6975 O   0  0  0  0  0  0  0  0  0  0  0  0
   -2.1502   -3.3537   31.4426 O   0  0  0  0  0  0  0  0  0  0  0  0
   -0.6117   -1.6900   30.2603 N   0  0  0  0  0  0  0  0  0  0  0  0
    0.4916   -0.7124   30.2516 C   0  0  0  0  0  0  0  0  0  0  0  0
    0.8687   -0.2810   28.8140 C   0  0  0  0  0  0  0  0  0  0  0  0
    0.6064   -1.2533   27.7259 N   0  0  0  0  0  0  0  0  0  0  0  0
    1.5020   -2.4091   27.7904 N   0  0  0  0  0  0  0  0  0  0  0  0
   -0.7962   -1.7002   27.7685 C   0  0  0  0  0  0  0  0  0  0  0  0
   -1.5245   -1.5901   29.1199 C   0  0  0  0  0  0  0  0  0  0  0  0
    0.6459   -6.0377   33.8032 N   0  0  0  0  0  0  0  0  0  0  0  0
    0.4036   -6.0353   36.2850 H   0  0  0  0  0  0  0  0  0  0  0  0
   -0.4931   -7.5562   36.3428 H   0  0  0  0  0  0  0  0  0  0  0  0
   -1.3593   -6.0022   36.1393 H   0  0  0  0  0  0  0  0  0  0  0  0
   -2.0804   -7.9526   34.1725 H   0  0  0  0  0  0  0  0  0  0  0  0
   -2.5137   -8.7477   32.0175 H   0  0  0  0  0  0  0  0  0  0  0  0
    2.3718   -4.7780   32.5459 H   0  0  0  0  0  0  0  0  0  0  0  0
    2.3094   -5.7456   31.1005 H   0  0  0  0  0  0  0  0  0  0  0  0
    1.7371   -3.4788   30.5837 H   0  0  0  0  0  0  0  0  0  0  0  0
   -0.7693   -5.1739   30.3003 H   0  0  0  0  0  0  0  0  0  0  0  0
   -0.2163   -3.9362   29.2129 H   0  0  0  0  0  0  0  0  0  0  0  0
    0.6914   -5.4164   29.3338 H   0  0  0  0  0  0  0  0  0  0  0  0
    0.1211   -3.6990   32.9509 H   0  0  0  0  0  0  0  0  0  0  0  0
    0.2084    0.1734   30.8307 H   0  0  0  0  0  0  0  0  0  0  0  0
    1.3753   -1.1572   30.7193 H   0  0  0  0  0  0  0  0  0  0  0  0
    1.9186    0.0378   28.7910 H   0  0  0  0  0  0  0  0  0  0  0  0
    0.2959    0.6257   28.5740 H   0  0  0  0  0  0  0  0  0  0  0  0
    2.4689   -2.0867   27.6722 H   0  0  0  0  0  0  0  0  0  0  0  0
    1.3539   -3.0014   26.9672 H   0  0  0  0  0  0  0  0  0  0  0  0
   -0.8821   -2.7240   27.3832 H   0  0  0  0  0  0  0  0  0  0  0  0
   -1.3614   -1.0976   27.0460 H   0  0  0  0  0  0  0  0  0  0  0  0
   -2.2560   -2.3969   29.1504 H   0  0  0  0  0  0  0  0  0  0  0  0
   -2.0400   -0.6260   29.1805 H   0  0  0  0  0  0  0  0  0  0  0  0
  1  2  1  0
  2  3  2  0
  3  4  1  0
  4  5  1  0
  4  6  2  0
  6  7  1  0
  7  8  1  0
  8  9  1  0
  9 10  1  0
  9 11  1  0
 11 12  1  0
 12 13  2  0
 12 14  2  0
 12 15  1  0
 15 16  1  0
 16 17  1  0
 17 18  1  0
 18 19  1  0
 18 20  1  0
 20 21  1  0
  7 22  2  0
 22  2  1  0
 21 15  1  0
  1 23  1  0
  1 24  1  0
  1 25  1  0
  3 26  1  0
  5 27  1  0
  8 28  1  0
  8 29  1  0
  9 30  1  0
 10 31  1  0
 10 32  1  0
 10 33  1  0
 11 34  1  0
 16 35  1  0
 16 36  1  0
 17 37  1  0
 17 38  1  0
 19 39  1  0
 19 40  1  0
 20 41  1  0
 20 42  1  0
 21 43  1  0
 21 44  1  0
M  END
>  <Energy>  (313) 
-106.09191096980678

>  <compound_id>  (313) 
358

>  <target_id>  (313) 
1

>  <reference_id>  (313) 
177

>  <inspiration_ids>  (313) 
[202, 177]

>  <energy_score>  (313) 
-40.01193420226933

>  <distance_score>  (313) 
1.5047671753617633

>  <path>  (313) 
/opt/xchem-fragalysis-2/maxwin/BulkDock/SCRATCH/505737/C358-P177/C358-P177.minimised.mol

>  <scratch_subdir>  (313) 
/opt/xchem-fragalysis-2/maxwin/BulkDock/SCRATCH/505737/C358-P177

>  <fragmenstein_runtime>  (313) 
4.811476469039917

>  <fragmenstein_outcome>  (313) 
too moved

>  <fragmenstein_mode>  (313) 
expansion

>  <fragmenstein_error>  (313) 


$$$$
